xflr5 v6.47

 Calculated polar for: AG18

 1 1 Reynolds number fixed          Mach number fixed         

 xtrf =   1.000 (top)        1.000 (bottom)
 Mach =   0.000     Re =     0.080 e 6     Ncrit =   9.000

  alpha     CL        CD       CDp       Cm    Top Xtr Bot Xtr   Cpmin    Chinge    XCp    
 ------- -------- --------- --------- -------- ------- ------- -------- --------- ---------
  -7.000  -0.4270   0.07904   0.07429  -0.0063  1.0000  0.1228  -1.5070   0.0000   0.2347
  -6.900  -0.4317   0.07769   0.07298  -0.0125  1.0000  0.1236  -1.5833   0.0000   0.2205
  -6.800  -0.4989   0.08671   0.08167  -0.0012  1.0000  0.1141  -1.6903   0.0000   0.2464
  -6.700  -0.4942   0.08530   0.08026  -0.0013  1.0000  0.1165  -1.6789   0.0000   0.2463
  -6.600  -0.4896   0.08382   0.07880  -0.0032  1.0000  0.1196  -1.6878   0.0000   0.2424
  -6.200  -0.4701   0.07710   0.07212  -0.0094  1.0000  0.1289  -1.7146   0.0000   0.2290
  -6.100  -0.4641   0.07562   0.07064  -0.0106  1.0000  0.1324  -1.7131   0.0000   0.2261
  -6.000  -0.4536   0.07312   0.06807  -0.0210  1.0000  0.1383  -1.8033   0.0000   0.2029
  -5.900  -0.4504   0.07165   0.06665  -0.0177  1.0000  0.1396  -1.7605   0.0000   0.2098
  -5.800  -0.4457   0.07039   0.06541  -0.0160  1.0000  0.1420  -1.7305   0.0000   0.2132
  -5.700  -0.4388   0.06897   0.06399  -0.0170  1.0000  0.1465  -1.7239   0.0000   0.2102
  -5.600  -0.4289   0.06661   0.06157  -0.0231  1.0000  0.1527  -1.7681   0.0000   0.1954
  -5.500  -0.4245   0.06535   0.06035  -0.0210  1.0000  0.1548  -1.7340   0.0000   0.1997
  -5.400  -0.4178   0.06405   0.05905  -0.0210  1.0000  0.1590  -1.7166   0.0000   0.1988
  -5.300  -0.4074   0.06188   0.05680  -0.0258  1.0000  0.1668  -1.7443   0.0000   0.1858
  -5.200  -0.4022   0.06065   0.05561  -0.0243  1.0000  0.1693  -1.7133   0.0000   0.1888
  -5.000  -0.3857   0.05747   0.05238  -0.0272  1.0000  0.1820  -1.7004   0.0000   0.1787
  -4.900  -0.3781   0.05624   0.05116  -0.0272  1.0000  0.1873  -1.6794   0.0000   0.1773
  -4.800  -0.3429   0.04079   0.03619  -0.0240  1.0000  0.1981  -1.5006   0.0000   0.1799
  -4.700  -0.3363   0.03898   0.03436  -0.0259  1.0000  0.2087  -1.5001   0.0000   0.1728
  -4.600  -0.3534   0.05183   0.04669  -0.0298  1.0000  0.2104  -1.6373   0.0000   0.1648
  -4.500  -0.3448   0.05053   0.04537  -0.0308  1.0000  0.2227  -1.6199   0.0000   0.1600
  -4.400  -0.3369   0.04938   0.04417  -0.0312  1.0000  0.2358  -1.5992   0.0000   0.1567
  -4.300  -0.3293   0.04830   0.04309  -0.0312  1.0000  0.2493  -1.5736   0.0000   0.1545
  -4.200  -0.3234   0.04724   0.04208  -0.0296  1.0000  0.2551  -1.5422   0.0000   0.1576
  -4.100  -0.3157   0.04604   0.04088  -0.0296  1.0000  0.2672  -1.5196   0.0000   0.1555
  -4.000  -0.3073   0.04481   0.03964  -0.0298  1.0000  0.2796  -1.4992   0.0000   0.1522
  -3.900  -0.2985   0.04358   0.03840  -0.0301  1.0000  0.2924  -1.4796   0.0000   0.1483
  -3.800  -0.2130   0.01497   0.00758  -0.0489  1.0000  0.0780  -2.1668   0.0000   0.0192
  -3.700  -0.2015   0.01375   0.00606  -0.0490  1.0000  0.0761  -2.1805   0.0000   0.0052
  -3.600  -0.1899   0.01265   0.00467  -0.0491  1.0000  0.0749  -2.1892   0.0000  -0.0101
  -3.500  -0.1785   0.01169   0.00346  -0.0490  1.0000  0.0745  -2.1845   0.0000  -0.0263
  -3.400  -0.1675   0.01085   0.00243  -0.0489  1.0000  0.0749  -2.1660   0.0000  -0.0437
  -3.300  -0.1566   0.01008   0.00151  -0.0487  1.0000  0.0760  -2.1392   0.0000  -0.0628
  -3.200  -0.1459   0.00941   0.00071  -0.0485  1.0000  0.0784  -2.1037   0.0000  -0.0842
  -3.100  -0.1348   0.00895  -0.00001  -0.0482  1.0000  0.0829  -2.0688   0.0000  -0.1095
  -3.000  -0.1249   0.00815  -0.00074  -0.0481  1.0000  0.0879  -2.0202   0.0000  -0.1369
  -2.900  -0.1145   0.00756  -0.00139  -0.0478  1.0000  0.0925  -2.0074   0.0000  -0.1696
  -2.800  -0.1034   0.00699  -0.00214  -0.0474  1.0000  0.0970  -2.0112   0.0000  -0.2103
  -2.700  -0.0936   0.00628  -0.00271  -0.0471  1.0000  0.1050  -1.9806   0.0000  -0.2559
  -2.600  -0.0836   0.00576  -0.00319  -0.0469  1.0000  0.1178  -1.9485   0.0000  -0.3138
  -2.500  -0.0734   0.00516  -0.00372  -0.0466  1.0000  0.1320  -1.9270   0.0000  -0.3879
  -2.400  -0.0632   0.00458  -0.00419  -0.0463  1.0000  0.1542  -1.8992   0.0000  -0.4867
  -2.300  -0.0529   0.00403  -0.00456  -0.0462  1.0000  0.1910  -1.8644   0.0000  -0.6262
  -2.200  -0.0428   0.00343  -0.00478  -0.0461  1.0000  0.2523  -1.8226   0.0000  -0.8307
  -2.100  -0.0325   0.00287  -0.00483  -0.0460  1.0000  0.3606  -1.7686   0.0000  -1.1688
  -2.000  -0.0233   0.00247  -0.00473  -0.0456  1.0000  0.4776  -1.6954   0.0000  -1.7120
  -1.900  -0.0155   0.00217  -0.00464  -0.0447  1.0000  0.5785  -1.6205   0.0000  -2.6417
  -1.800  -0.0098   0.00190  -0.00452  -0.0431  1.0000  0.6792  -1.5518   0.0000  -4.1806
  -1.700  -0.0071   0.00165  -0.00429  -0.0402  1.0000  0.8268  -1.4945   0.0000  -5.4557
  -1.600   0.0068   0.00183  -0.00421  -0.0407  1.0000  1.0000  -1.3994   0.0000   6.2950
  -1.500   0.0174   0.00181  -0.00441  -0.0408  1.0000  1.0000  -1.3130   0.0000   2.5970
  -1.400   0.0278   0.00179  -0.00458  -0.0408  1.0000  1.0000  -1.2275   0.0000   1.7212
  -1.300   0.0380   0.00177  -0.00473  -0.0408  1.0000  1.0000  -1.1430   0.0000   1.3257
  -1.200   0.0480   0.00175  -0.00486  -0.0407  1.0000  1.0000  -1.0595   0.0000   1.0993
  -1.100   0.0579   0.00173  -0.00499  -0.0406  1.0000  1.0000  -0.9769   0.0000   0.9523
  -1.000   0.0678   0.00172  -0.00510  -0.0406  1.0000  1.0000  -0.8941   0.0000   0.8490
  -0.900   0.0775   0.00170  -0.00523  -0.0405  1.0000  1.0000  -0.8097   0.0000   0.7724
  -0.800   0.0872   0.00169  -0.00532  -0.0404  1.0000  1.0000  -0.7356   0.0000   0.7132
  -0.700   0.0968   0.00168  -0.00541  -0.0403  1.0000  1.0000  -0.6745   0.0000   0.6662
  -0.600   0.1063   0.00167  -0.00548  -0.0402  1.0000  1.0000  -0.6144   0.0000   0.6278
  -0.500   0.1159   0.00166  -0.00555  -0.0401  1.0000  1.0000  -0.5553   0.0000   0.5960
  -0.400   0.1253   0.00166  -0.00561  -0.0401  1.0000  1.0000  -0.4973   0.0000   0.5692
  -0.300   0.1347   0.00166  -0.00566  -0.0400  1.0000  1.0000  -0.4404   0.0000   0.5463
  -0.200   0.1441   0.00166  -0.00571  -0.0399  1.0000  1.0000  -0.3855   0.0000   0.5267
  -0.100   0.1533   0.00166  -0.00575  -0.0399  1.0000  1.0000  -0.3433   0.0000   0.5096
   0.000   0.1624   0.00166  -0.00578  -0.0399  1.0000  1.0000  -0.3380   0.0000   0.4947
   0.100   0.1714   0.00167  -0.00581  -0.0398  1.0000  1.0000  -0.3479   0.0000   0.4816
   0.200   0.1803   0.00168  -0.00584  -0.0398  1.0000  1.0000  -0.3580   0.0000   0.4700
   0.300   0.1891   0.00169  -0.00585  -0.0398  1.0000  1.0000  -0.3684   0.0000   0.4597
   0.400   0.1977   0.00171  -0.00585  -0.0398  1.0000  1.0000  -0.3786   0.0000   0.4505
   0.500   0.2062   0.00174  -0.00584  -0.0399  1.0000  1.0000  -0.3886   0.0000   0.4423
   0.600   0.2145   0.00177  -0.00582  -0.0399  1.0000  1.0000  -0.3989   0.0000   0.4350
   0.700   0.2227   0.00180  -0.00579  -0.0400  1.0000  1.0000  -0.4094   0.0000   0.4285
   0.800   0.2306   0.00185  -0.00575  -0.0401  1.0000  1.0000  -0.4195   0.0000   0.4227
   0.900   0.2541   0.00192  -0.00568  -0.0429  0.9925  1.0000  -0.4434   0.0000   0.4176
   1.000   0.2794   0.00199  -0.00562  -0.0459  0.9837  1.0000  -0.4712   0.0000   0.4132
   1.100   0.3028   0.00206  -0.00554  -0.0485  0.9740  1.0000  -0.4979   0.0000   0.4090
   1.200   0.3270   0.00211  -0.00548  -0.0512  0.9649  1.0000  -0.5270   0.0000   0.4052
   1.300   0.3519   0.00214  -0.00543  -0.0538  0.9559  1.0000  -0.5584   0.0000   0.4017
   1.400   0.3737   0.00219  -0.00536  -0.0559  0.9457  1.0000  -0.5876   0.0000   0.3982
   1.500   0.3956   0.00222  -0.00530  -0.0578  0.9361  1.0000  -0.6203   0.0000   0.3947
   1.600   0.4177   0.00223  -0.00526  -0.0596  0.9271  1.0000  -0.6539   0.0000   0.3912
   1.700   0.4345   0.00228  -0.00519  -0.0603  0.9153  1.0000  -0.6821   0.0000   0.3874
   1.800   0.4506   0.00232  -0.00513  -0.0609  0.9034  1.0000  -0.7117   0.0000   0.3837
   1.900   0.4656   0.00236  -0.00504  -0.0612  0.8912  1.0000  -0.7422   0.0000   0.3799
   2.000   0.4794   0.00240  -0.00499  -0.0612  0.8786  1.0000  -0.7714   0.0000   0.3760
   2.100   0.4920   0.00244  -0.00493  -0.0609  0.8655  1.0000  -0.7994   0.0000   0.3721
   2.200   0.5035   0.00249  -0.00488  -0.0604  0.8518  1.0000  -0.8262   0.0000   0.3682
   2.300   0.5141   0.00255  -0.00483  -0.0597  0.8376  1.0000  -0.8542   0.0000   0.3643
   2.400   0.5241   0.00261  -0.00478  -0.0588  0.8229  1.0000  -0.8834   0.0000   0.3604
   2.500   0.5337   0.00267  -0.00473  -0.0579  0.8078  1.0000  -0.9123   0.0000   0.3567
   2.600   0.5430   0.00274  -0.00468  -0.0570  0.7922  1.0000  -0.9409   0.0000   0.3530
   2.700   0.5522   0.00281  -0.00463  -0.0560  0.7765  1.0000  -0.9696   0.0000   0.3494
   2.800   0.5613   0.00289  -0.00459  -0.0550  0.7605  1.0000  -0.9982   0.0000   0.3460
   2.900   0.5700   0.00299  -0.00452  -0.0541  0.7421  1.0000  -1.0273   0.0000   0.3428
   3.000   0.5789   0.00308  -0.00441  -0.0531  0.7241  1.0000  -1.0611   0.0000   0.3396
   3.100   0.5878   0.00318  -0.00437  -0.0522  0.7063  1.0000  -1.0953   0.0000   0.3366
   3.200   0.5967   0.00329  -0.00430  -0.0513  0.6869  1.0000  -1.1293   0.0000   0.3337
   3.300   0.6056   0.00341  -0.00424  -0.0505  0.6672  1.0000  -1.1637   0.0000   0.3310
   3.400   0.6146   0.00353  -0.00419  -0.0496  0.6480  1.0000  -1.1984   0.0000   0.3284
   3.500   0.6235   0.00366  -0.00411  -0.0489  0.6268  1.0000  -1.2357   0.0000   0.3260
   3.600   0.6325   0.00380  -0.00406  -0.0481  0.6073  1.0000  -1.2779   0.0000   0.3235
   3.700   0.6416   0.00395  -0.00397  -0.0474  0.5853  1.0000  -1.3199   0.0000   0.3214
   3.800   0.6506   0.00412  -0.00390  -0.0467  0.5653  1.0000  -1.3627   0.0000   0.3192
   3.900   0.6597   0.00429  -0.00379  -0.0461  0.5433  1.0000  -1.4053   0.0000   0.3172
   4.000   0.6687   0.00447  -0.00371  -0.0455  0.5232  1.0000  -1.4535   0.0000   0.3152
   4.100   0.6778   0.00466  -0.00353  -0.0450  0.5016  1.0000  -1.5049   0.0000   0.3135
   4.200   0.6869   0.00488  -0.00342  -0.0444  0.4821  1.0000  -1.5571   0.0000   0.3117
   4.300   0.6960   0.00509  -0.00326  -0.0439  0.4609  1.0000  -1.6095   0.0000   0.3101
   4.400   0.7051   0.00532  -0.00313  -0.0434  0.4419  1.0000  -1.6717   0.0000   0.3084
   4.500   0.7142   0.00556  -0.00294  -0.0430  0.4217  1.0000  -1.7337   0.0000   0.3070
   4.600   0.7233   0.00582  -0.00277  -0.0425  0.4029  1.0000  -1.8015   0.0000   0.3055
   4.700   0.7324   0.00609  -0.00259  -0.0421  0.3849  1.0000  -1.8792   0.0000   0.3041
   4.800   0.7415   0.00636  -0.00235  -0.0417  0.3658  1.0000  -1.9667   0.0000   0.3028
   4.900   0.7506   0.00666  -0.00212  -0.0413  0.3483  1.0000  -2.0555   0.0000   0.3015
   5.000   0.7597   0.00697  -0.00190  -0.0409  0.3317  1.0000  -2.1518   0.0000   0.3002
   5.100   0.7688   0.00730  -0.00162  -0.0405  0.3147  1.0000  -2.2574   0.0000   0.2990
   5.200   0.7779   0.00763  -0.00131  -0.0401  0.2980  1.0000  -2.3634   0.0000   0.2978
   5.300   0.7870   0.00799  -0.00099  -0.0398  0.2822  1.0000  -2.4704   0.0000   0.2967
   5.400   0.7960   0.00835  -0.00062  -0.0394  0.2669  1.0000  -2.5725   0.0000   0.2956
   5.500   0.8050   0.00873  -0.00029  -0.0391  0.2521  1.0000  -2.6805   0.0000   0.2945
   5.600   0.8141   0.00915   0.00010  -0.0387  0.2384  1.0000  -2.7881   0.0000   0.2934
   5.700   0.8232   0.00959   0.00052  -0.0384  0.2252  1.0000  -2.8955   0.0000   0.2924
   5.800   0.8321   0.01004   0.00095  -0.0380  0.2122  1.0000  -3.0037   0.0000   0.2914
   5.900   0.8410   0.01048   0.00138  -0.0377  0.1995  1.0000  -3.1126   0.0000   0.2904
   6.000   0.8499   0.01098   0.00186  -0.0373  0.1879  1.0000  -3.2203   0.0000   0.2894
   6.100   0.8590   0.01156   0.00236  -0.0370  0.1781  1.0000  -3.3277   0.0000   0.2884
   6.200   0.8680   0.01209   0.00289  -0.0366  0.1677  1.0000  -3.4336   0.0000   0.2875
   6.300   0.8768   0.01263   0.00352  -0.0362  0.1569  1.0000  -3.5346   0.0000   0.2865
   6.400   0.8854   0.01322   0.00413  -0.0359  0.1468  1.0000  -3.6373   0.0000   0.2856
   6.500   0.8943   0.01394   0.00468  -0.0356  0.1390  1.0000  -3.7447   0.0000   0.2848
   6.600   0.9033   0.01464   0.00563  -0.0351  0.1308  1.0000  -3.8240   0.0000   0.2837
   6.700   0.9118   0.01543   0.00639  -0.0347  0.1231  1.0000  -3.9180   0.0000   0.2829
   6.800   0.9202   0.01599   0.00701  -0.0344  0.1147  1.0000  -4.0232   0.0000   0.2821
   6.900   0.9285   0.01693   0.00811  -0.0339  0.1079  1.0000  -4.0938   0.0000   0.2811
   7.000   0.9372   0.01779   0.00901  -0.0335  0.1023  1.0000  -4.1728   0.0000   0.2802
   7.100   0.9451   0.01897   0.01028  -0.0330  0.0973  1.0000  -4.2331   0.0000   0.2794
   7.200   0.9531   0.01973   0.01119  -0.0325  0.0908  1.0000  -4.3052   0.0000   0.2785
   7.300   0.9605   0.02083   0.01220  -0.0323  0.0857  1.0000  -4.3885   0.0000   0.2778
   7.400   0.9677   0.02219   0.01394  -0.0315  0.0822  1.0000  -4.4008   0.0000   0.2768
   7.500   0.9751   0.02350   0.01543  -0.0310  0.0790  1.0000  -4.4318   0.0000   0.2758
   7.600   0.9828   0.02453   0.01638  -0.0307  0.0753  1.0000  -4.5094   0.0000   0.2752
   7.700   0.9879   0.02631   0.01838  -0.0301  0.0725  1.0000  -4.5262   0.0000   0.2744
   7.800   0.9928   0.02786   0.02030  -0.0294  0.0695  1.0000  -4.5467   0.0000   0.2734
   7.900   0.9983   0.02930   0.02194  -0.0288  0.0667  1.0000  -4.5937   0.0000   0.2726
   8.000   1.0038   0.03089   0.02367  -0.0283  0.0651  1.0000  -4.6378   0.0000   0.2719
   8.100   1.0094   0.03249   0.02533  -0.0278  0.0636  1.0000  -4.6921   0.0000   0.2711
   8.200   1.0137   0.03447   0.02740  -0.0274  0.0626  1.0000  -4.7300   0.0000   0.2705
   8.300   1.0162   0.03702   0.03006  -0.0270  0.0618  1.0000  -4.7442   0.0000   0.2700
   8.400   1.0167   0.03969   0.03293  -0.0264  0.0613  1.0000  -4.7294   0.0000   0.2694
   8.500   1.0167   0.04191   0.03544  -0.0257  0.0609  1.0000  -4.7078   0.0000   0.2687
   8.600   1.0156   0.04424   0.03804  -0.0251  0.0605  1.0000  -4.6811   0.0000   0.2680
   8.700   1.0136   0.04664   0.04068  -0.0246  0.0602  1.0000  -4.6513   0.0000   0.2675
   8.800   1.0107   0.04907   0.04332  -0.0241  0.0600  1.0000  -4.6196   0.0000   0.2670
   8.900   1.0070   0.05152   0.04594  -0.0236  0.0599  1.0000  -4.5865   0.0000   0.2666
   9.000   1.0025   0.05395   0.04853  -0.0232  0.0598  1.0000  -4.5526   0.0000   0.2663
   9.100   0.9974   0.05635   0.05107  -0.0229  0.0598  1.0000  -4.5184   0.0000   0.2660
   9.200   0.9917   0.05872   0.05354  -0.0226  0.0599  1.0000  -4.4843   0.0000   0.2658
   9.300   0.9855   0.06103   0.05595  -0.0224  0.0600  1.0000  -4.4506   0.0000   0.2656
   9.400   0.9788   0.06329   0.05828  -0.0221  0.0602  1.0000  -4.4175   0.0000   0.2655
   9.500   0.9717   0.06543   0.06049  -0.0218  0.0604  1.0000  -4.3862   0.0000   0.2653
   9.600   0.9643   0.06748   0.06258  -0.0216  0.0606  1.0000  -4.3561   0.0000   0.2651
   9.700   0.9568   0.06956   0.06470  -0.0214  0.0608  1.0000  -4.3264   0.0000   0.2651
   9.800   0.9496   0.07171   0.06688  -0.0215  0.0610  1.0000  -4.2968   0.0000   0.2652
   9.900   0.9428   0.07396   0.06915  -0.0216  0.0612  1.0000  -4.2674   0.0000   0.2655
  10.000   0.9365   0.07631   0.07152  -0.0219  0.0613  1.0000  -4.2384   0.0000   0.2659
  10.200   0.9765   0.10022   0.09550  -0.0473  0.0731  1.0000  -3.7646   0.0000   0.2908
  10.300   0.9754   0.10268   0.09795  -0.0479  0.0734  1.0000  -3.7493   0.0000   0.2915
  10.400   0.9748   0.10508   0.10034  -0.0484  0.0736  1.0000  -3.7386   0.0000   0.2919
  10.500   0.9749   0.10743   0.10269  -0.0486  0.0738  1.0000  -3.7327   0.0000   0.2921
  10.700   0.9219   0.13625   0.13127  -0.0746  0.1519  1.0000  -2.5099   0.0000   0.3240
  10.800   0.9146   0.13823   0.13321  -0.0769  0.1513  1.0000  -2.4553   0.0000   0.3272
  10.900   0.9081   0.14012   0.13507  -0.0791  0.1500  1.0000  -2.4052   0.0000   0.3301
  11.000   0.9040   0.14190   0.13683  -0.0806  0.1477  1.0000  -2.3701   0.0000   0.3321
  11.100   0.9059   0.14341   0.13834  -0.0807  0.1438  1.0000  -2.3732   0.0000   0.3319
  11.200   0.9150   0.14512   0.14009  -0.0791  0.1412  1.0000  -2.4126   0.0000   0.3292
  11.300   0.9366   0.14856   0.14365  -0.0744  0.1393  1.0000  -2.5503   0.0000   0.3221
  11.400   0.9275   0.15024   0.14529  -0.0773  0.1390  1.0000  -2.4756   0.0000   0.3259
  11.500   0.9179   0.15179   0.14674  -0.0803  0.1384  1.0000  -2.3980   0.0000   0.3300
  11.600   0.9088   0.15323   0.14813  -0.0832  0.1370  1.0000  -2.3203   0.0000   0.3340
  11.700   0.9050   0.15485   0.14973  -0.0849  0.1348  1.0000  -2.2825   0.0000   0.3361
  11.800   0.9049   0.15654   0.15141  -0.0856  0.1326  1.0000  -2.2726   0.0000   0.3369
  11.900   0.9070   0.15824   0.15312  -0.0859  0.1306  1.0000  -2.2809   0.0000   0.3369
  12.000   0.9126   0.16004   0.15493  -0.0853  0.1286  1.0000  -2.3167   0.0000   0.3356


