xflr5 v6.47

 Calculated polar for: AG18

 1 1 Reynolds number fixed          Mach number fixed         

 xtrf =   1.000 (top)        1.000 (bottom)
 Mach =   0.000     Re =     0.030 e 6     Ncrit =   9.000

  alpha     CL        CD       CDp       Cm    Top Xtr Bot Xtr   Cpmin    Chinge    XCp    
 ------- -------- --------- --------- -------- ------- ------- -------- --------- ---------
  -7.000  -0.4853   0.09688   0.08860   0.0361  1.0000  0.5016  -1.3804   0.0000   0.3226
  -6.900  -0.4789   0.09509   0.08682   0.0369  1.0000  0.5191  -1.3708   0.0000   0.3253
  -6.800  -0.4768   0.09388   0.08563   0.0380  1.0000  0.5364  -1.3673   0.0000   0.3279
  -6.700  -0.4778   0.09308   0.08487   0.0392  1.0000  0.5524  -1.3680   0.0000   0.3303
  -6.600  -0.4637   0.09024   0.08202   0.0400  1.0000  0.5778  -1.3473   0.0000   0.3345
  -6.500  -0.4534   0.08793   0.07970   0.0409  1.0000  0.6015  -1.3327   0.0000   0.3383
  -6.400  -0.4485   0.08632   0.07811   0.0421  1.0000  0.6251  -1.3248   0.0000   0.3421
  -6.200  -0.4257   0.08168   0.07344   0.0437  1.0000  0.6826  -1.2946   0.0000   0.3507
  -6.100  -0.4162   0.07969   0.07144   0.0449  1.0000  0.7173  -1.2816   0.0000   0.3559
  -5.800  -0.2343   0.05793   0.04907   0.0193  1.0000  0.9891  -1.1250   0.0000   0.3294
  -5.700  -0.2352   0.05731   0.04848   0.0200  1.0000  0.9858  -1.1343   0.0000   0.3322
  -5.600  -0.2423   0.05726   0.04848   0.0222  1.0000  0.9766  -1.1439   0.0000   0.3388
  -5.500  -0.2526   0.05753   0.04882   0.0251  1.0000  0.9652  -1.1541   0.0000   0.3465
  -5.400  -0.2633   0.05776   0.04911   0.0278  1.0000  0.9495  -1.1643   0.0000   0.3532
  -5.300  -0.2758   0.05812   0.04956   0.0308  1.0000  0.9315  -1.1751   0.0000   0.3592
  -5.200  -0.2917   0.05886   0.05038   0.0342  1.0000  0.9137  -1.1868   0.0000   0.3650
  -5.100  -0.3065   0.05937   0.05098   0.0368  1.0000  0.8869  -1.1989   0.0000   0.3681
  -5.000  -0.3237   0.06007   0.05179   0.0390  1.0000  0.8493  -1.2150   0.0000   0.3685
  -4.900  -0.3445   0.06110   0.05294   0.0409  1.0000  0.8072  -1.2443   0.0000   0.3669
  -4.800  -0.3668   0.06224   0.05422   0.0414  1.0000  0.7539  -1.2808   0.0000   0.3614
  -4.700  -0.3924   0.06356   0.05572   0.0408  1.0000  0.6942  -1.3278   0.0000   0.3525
  -4.600  -0.3668   0.05693   0.04856  -0.0269  1.0000  0.2453  -1.8222   0.0000   0.1758
  -4.500  -0.3518   0.05420   0.04568  -0.0304  1.0000  0.2288  -1.8534   0.0000   0.1626
  -4.400  -0.3356   0.05145   0.04271  -0.0345  1.0000  0.2151  -1.8915   0.0000   0.1464
  -4.300  -0.3182   0.04869   0.03964  -0.0387  1.0000  0.2038  -1.9355   0.0000   0.1275
  -4.200  -0.3061   0.04673   0.03757  -0.0399  1.0000  0.1993  -1.9377   0.0000   0.1186
  -4.100  -0.2873   0.04411   0.03447  -0.0439  1.0000  0.1916  -1.9865   0.0000   0.0962
  -4.000  -0.2747   0.04237   0.03256  -0.0450  1.0000  0.1914  -1.9842   0.0000   0.0851
  -3.900  -0.2627   0.04075   0.03074  -0.0458  1.0000  0.1934  -1.9754   0.0000   0.0744
  -3.800  -0.2531   0.03956   0.02955  -0.0457  1.0000  0.1981  -1.9424   0.0000   0.0684
  -3.700  -0.2401   0.03804   0.02784  -0.0466  1.0000  0.2009  -1.9328   0.0000   0.0548
  -3.600  -0.2263   0.03648   0.02601  -0.0476  1.0000  0.2028  -1.9278   0.0000   0.0383
  -3.500  -0.2121   0.03493   0.02416  -0.0485  1.0000  0.2041  -1.9396   0.0000   0.0198
  -3.400  -0.1977   0.03347   0.02236  -0.0494  1.0000  0.2061  -1.9585   0.0000  -0.0013
  -3.300  -0.1871   0.03233   0.02122  -0.0491  1.0000  0.2115  -1.9485   0.0000  -0.0143
  -3.200  -0.1746   0.03123   0.01990  -0.0494  1.0000  0.2215  -1.9480   0.0000  -0.0349
  -3.100  -0.1631   0.03028   0.01882  -0.0494  1.0000  0.2345  -1.9383   0.0000  -0.0549
  -3.000  -0.1511   0.02929   0.01767  -0.0494  1.0000  0.2468  -1.9320   0.0000  -0.0786
  -2.900  -0.1387   0.02824   0.01652  -0.0492  1.0000  0.2589  -1.9241   0.0000  -0.1070
  -2.800  -0.1270   0.02730   0.01556  -0.0490  1.0000  0.2784  -1.9093   0.0000  -0.1380
  -2.700  -0.1163   0.02648   0.01479  -0.0485  1.0000  0.3067  -1.8872   0.0000  -0.1696
  -2.600  -0.1049   0.02551   0.01385  -0.0481  1.0000  0.3361  -1.8726   0.0000  -0.2110
  -2.500  -0.0949   0.02460   0.01310  -0.0473  1.0000  0.3788  -1.8510   0.0000  -0.2514
  -2.400  -0.0858   0.02361   0.01237  -0.0461  1.0000  0.4337  -1.8296   0.0000  -0.2911
  -2.300  -0.0788   0.02251   0.01169  -0.0443  1.0000  0.5055  -1.8084   0.0000  -0.3162
  -2.200  -0.0752   0.02127   0.01101  -0.0415  1.0000  0.5960  -1.7917   0.0000  -0.3063
  -2.100  -0.0768   0.01992   0.01039  -0.0372  1.0000  0.6982  -1.7834   0.0000  -0.2377
  -2.000  -0.0456   0.01799   0.00820  -0.0405  1.0000  1.0000  -1.7068   0.0000  -0.6433
  -1.900  -0.0323   0.01797   0.00772  -0.0412  1.0000  1.0000  -1.6254   0.0000  -1.0332
  -1.800  -0.0204   0.01795   0.00736  -0.0414  1.0000  1.0000  -1.5433   0.0000  -1.7920
  -1.700  -0.0091   0.01794   0.00706  -0.0416  1.0000  1.0000  -1.4609   0.0000  -4.3320
  -1.600   0.0018   0.01794   0.00680  -0.0416  1.0000  1.0000  -1.3786   0.0000  22.9332
  -1.500   0.0126   0.01794   0.00658  -0.0417  1.0000  1.0000  -1.2966   0.0000   3.5714
  -1.400   0.0232   0.01794   0.00638  -0.0416  1.0000  1.0000  -1.2152   0.0000   2.0527
  -1.300   0.0337   0.01795   0.00620  -0.0416  1.0000  1.0000  -1.1345   0.0000   1.4903
  -1.200   0.0440   0.01796   0.00604  -0.0416  1.0000  1.0000  -1.0545   0.0000   1.1966
  -1.100   0.0543   0.01798   0.00590  -0.0415  1.0000  1.0000  -0.9751   0.0000   1.0159
  -1.000   0.0645   0.01800   0.00577  -0.0414  1.0000  1.0000  -0.8956   0.0000   0.8932
  -0.900   0.0747   0.01802   0.00561  -0.0413  1.0000  1.0000  -0.8322   0.0000   0.8044
  -0.800   0.0848   0.01805   0.00551  -0.0412  1.0000  1.0000  -0.7708   0.0000   0.7372
  -0.700   0.0948   0.01808   0.00543  -0.0411  1.0000  1.0000  -0.7103   0.0000   0.6845
  -0.600   0.1048   0.01812   0.00536  -0.0410  1.0000  1.0000  -0.6508   0.0000   0.6420
  -0.500   0.1147   0.01816   0.00530  -0.0410  1.0000  1.0000  -0.5922   0.0000   0.6071
  -0.400   0.1246   0.01820   0.00526  -0.0409  1.0000  1.0000  -0.5346   0.0000   0.5778
  -0.300   0.1344   0.01825   0.00522  -0.0408  1.0000  1.0000  -0.4787   0.0000   0.5529
  -0.200   0.1442   0.01831   0.00520  -0.0407  1.0000  1.0000  -0.4326   0.0000   0.5315
  -0.100   0.1540   0.01837   0.00519  -0.0406  1.0000  1.0000  -0.3913   0.0000   0.5129
   0.000   0.1637   0.01843   0.00520  -0.0405  1.0000  1.0000  -0.3809   0.0000   0.4966
   0.100   0.1733   0.01850   0.00521  -0.0404  1.0000  1.0000  -0.3919   0.0000   0.4822
   0.200   0.1829   0.01858   0.00520  -0.0403  1.0000  1.0000  -0.4030   0.0000   0.4694
   0.300   0.1925   0.01866   0.00524  -0.0402  1.0000  1.0000  -0.4142   0.0000   0.4580
   0.400   0.2020   0.01874   0.00528  -0.0401  1.0000  1.0000  -0.4261   0.0000   0.4476
   0.500   0.2114   0.01884   0.00534  -0.0400  1.0000  1.0000  -0.4379   0.0000   0.4383
   0.600   0.2208   0.01894   0.00542  -0.0399  1.0000  1.0000  -0.4498   0.0000   0.4299
   0.700   0.2301   0.01905   0.00550  -0.0399  1.0000  1.0000  -0.4619   0.0000   0.4222
   0.800   0.2394   0.01916   0.00560  -0.0398  1.0000  1.0000  -0.4747   0.0000   0.4152
   0.900   0.2486   0.01929   0.00571  -0.0397  1.0000  1.0000  -0.4874   0.0000   0.4087
   1.000   0.2578   0.01942   0.00583  -0.0397  1.0000  1.0000  -0.5002   0.0000   0.4029
   1.100   0.2669   0.01956   0.00597  -0.0397  1.0000  1.0000  -0.5133   0.0000   0.3975
   1.200   0.2761   0.01972   0.00612  -0.0397  1.0000  1.0000  -0.5272   0.0000   0.3925
   1.300   0.2851   0.01988   0.00630  -0.0397  1.0000  1.0000  -0.5411   0.0000   0.3879
   1.400   0.2941   0.02006   0.00648  -0.0397  1.0000  1.0000  -0.5548   0.0000   0.3837
   1.500   0.3029   0.02025   0.00667  -0.0398  1.0000  1.0000  -0.5685   0.0000   0.3799
   1.600   0.3117   0.02045   0.00689  -0.0399  1.0000  1.0000  -0.5834   0.0000   0.3763
   1.700   0.3203   0.02067   0.00712  -0.0399  1.0000  1.0000  -0.5983   0.0000   0.3731
   1.800   0.3289   0.02090   0.00737  -0.0400  1.0000  1.0000  -0.6131   0.0000   0.3701
   1.900   0.3373   0.02115   0.00765  -0.0402  1.0000  1.0000  -0.6276   0.0000   0.3674
   2.000   0.3456   0.02142   0.00795  -0.0403  1.0000  1.0000  -0.6424   0.0000   0.3650
   2.100   0.3537   0.02171   0.00827  -0.0405  1.0000  1.0000  -0.6583   0.0000   0.3628
   2.200   0.3617   0.02202   0.00862  -0.0408  1.0000  1.0000  -0.6741   0.0000   0.3608
   2.300   0.3695   0.02236   0.00899  -0.0410  1.0000  1.0000  -0.6894   0.0000   0.3591
   2.400   0.3771   0.02273   0.00940  -0.0413  1.0000  1.0000  -0.7045   0.0000   0.3576
   2.500   0.3846   0.02312   0.00984  -0.0417  1.0000  1.0000  -0.7191   0.0000   0.3563
   2.600   0.3918   0.02355   0.01032  -0.0421  1.0000  1.0000  -0.7335   0.0000   0.3553
   2.700   0.3988   0.02401   0.01088  -0.0425  1.0000  1.0000  -0.7494   0.0000   0.3544
   2.800   0.4055   0.02451   0.01143  -0.0430  1.0000  1.0000  -0.7646   0.0000   0.3539
   2.900   0.4121   0.02506   0.01203  -0.0436  1.0000  1.0000  -0.7793   0.0000   0.3535
   3.000   0.4184   0.02565   0.01267  -0.0442  1.0000  1.0000  -0.7932   0.0000   0.3534
   3.100   0.4244   0.02628   0.01336  -0.0450  1.0000  1.0000  -0.8064   0.0000   0.3535
   3.200   0.4301   0.02697   0.01410  -0.0457  1.0000  1.0000  -0.8187   0.0000   0.3538
   3.300   0.4356   0.02770   0.01490  -0.0466  1.0000  1.0000  -0.8301   0.0000   0.3543
   3.400   0.4949   0.02906   0.01656  -0.0575  0.9673  1.0000  -0.9176   0.0000   0.3635
   3.500   0.5561   0.02998   0.01786  -0.0673  0.9257  1.0000  -1.0148   0.0000   0.3684
   3.600   0.6110   0.03039   0.01875  -0.0744  0.8846  1.0000  -1.1196   0.0000   0.3691
   3.700   0.6463   0.03055   0.01920  -0.0773  0.8496  1.0000  -1.1975   0.0000   0.3670
   3.800   0.6766   0.03047   0.01936  -0.0784  0.8180  1.0000  -1.2744   0.0000   0.3632
   3.900   0.6967   0.03045   0.01949  -0.0778  0.7899  1.0000  -1.3398   0.0000   0.3590
   4.000   0.7112   0.03052   0.01967  -0.0765  0.7640  1.0000  -1.3925   0.0000   0.3548
   4.100   0.7235   0.03062   0.01984  -0.0748  0.7391  1.0000  -1.4410   0.0000   0.3506
   4.200   0.7353   0.03066   0.01994  -0.0728  0.7157  1.0000  -1.4971   0.0000   0.3462
   4.300   0.7454   0.03075   0.02016  -0.0707  0.6926  1.0000  -1.5506   0.0000   0.3419
   4.400   0.7536   0.03104   0.02048  -0.0688  0.6697  1.0000  -1.5966   0.0000   0.3383
   4.500   0.7631   0.03112   0.02055  -0.0664  0.6483  1.0000  -1.6529   0.0000   0.3341
   4.600   0.7707   0.03149   0.02095  -0.0647  0.6259  1.0000  -1.7050   0.0000   0.3309
   4.700   0.7791   0.03174   0.02119  -0.0627  0.6045  1.0000  -1.7623   0.0000   0.3273
   4.800   0.7875   0.03208   0.02154  -0.0609  0.5831  1.0000  -1.8223   0.0000   0.3242
   4.900   0.7958   0.03248   0.02194  -0.0592  0.5621  1.0000  -1.8871   0.0000   0.3212
   5.000   0.8041   0.03286   0.02230  -0.0575  0.5412  1.0000  -1.9578   0.0000   0.3182
   5.100   0.8125   0.03337   0.02281  -0.0560  0.5212  1.0000  -2.0335   0.0000   0.3156
   5.200   0.8208   0.03392   0.02337  -0.0547  0.5011  1.0000  -2.1078   0.0000   0.3132
   5.300   0.8296   0.03433   0.02370  -0.0530  0.4822  1.0000  -2.1905   0.0000   0.3104
   5.400   0.8375   0.03517   0.02463  -0.0522  0.4631  1.0000  -2.2555   0.0000   0.3087
   5.500   0.8460   0.03577   0.02521  -0.0508  0.4447  1.0000  -2.3318   0.0000   0.3065
   5.600   0.8550   0.03634   0.02580  -0.0494  0.4276  1.0000  -2.4234   0.0000   0.3041
   5.700   0.8631   0.03735   0.02689  -0.0488  0.4112  1.0000  -2.4962   0.0000   0.3027
   5.800   0.8710   0.03827   0.02788  -0.0480  0.3945  1.0000  -2.5725   0.0000   0.3012
   5.900   0.8791   0.03912   0.02877  -0.0470  0.3783  1.0000  -2.6533   0.0000   0.2996
   6.000   0.8875   0.04024   0.02995  -0.0464  0.3648  1.0000  -2.7265   0.0000   0.2983
   6.100   0.8958   0.04138   0.03118  -0.0458  0.3518  1.0000  -2.7977   0.0000   0.2971
   6.200   0.9036   0.04240   0.03225  -0.0450  0.3378  1.0000  -2.8722   0.0000   0.2957
   6.300   0.9112   0.04339   0.03328  -0.0442  0.3238  1.0000  -2.9467   0.0000   0.2943
   6.400   0.9192   0.04464   0.03460  -0.0436  0.3127  1.0000  -3.0134   0.0000   0.2931
   6.500   0.9288   0.04577   0.03569  -0.0427  0.3031  1.0000  -3.0956   0.0000   0.2916
   6.600   0.9336   0.04789   0.03817  -0.0432  0.2953  1.0000  -3.1059   0.0000   0.2919
   6.700   0.9404   0.04919   0.03953  -0.0426  0.2848  1.0000  -3.1648   0.0000   0.2908
   6.800   0.9478   0.05020   0.04055  -0.0417  0.2728  1.0000  -3.2372   0.0000   0.2895
   6.900   0.9554   0.05139   0.04179  -0.0410  0.2630  1.0000  -3.3030   0.0000   0.2882
   7.000   0.9595   0.05379   0.04443  -0.0414  0.2591  1.0000  -3.3037   0.0000   0.2885
   7.100   0.9625   0.05633   0.04724  -0.0421  0.2561  1.0000  -3.2929   0.0000   0.2891
   7.200   0.9667   0.05858   0.04965  -0.0425  0.2526  1.0000  -3.3007   0.0000   0.2892
   7.300   0.9736   0.06018   0.05127  -0.0418  0.2464  1.0000  -3.3489   0.0000   0.2882
   7.400   0.9732   0.06294   0.05426  -0.0429  0.2444  1.0000  -3.3177   0.0000   0.2893
   7.500   0.9732   0.06550   0.05698  -0.0438  0.2416  1.0000  -3.2970   0.0000   0.2902
   7.600   0.9802   0.06649   0.05796  -0.0426  0.2319  1.0000  -3.3646   0.0000   0.2885
   7.700   0.9784   0.06928   0.06089  -0.0438  0.2307  1.0000  -3.3290   0.0000   0.2898
   7.800   0.9764   0.07206   0.06379  -0.0450  0.2299  1.0000  -3.2943   0.0000   0.2911
   7.900   0.9742   0.07488   0.06670  -0.0463  0.2297  1.0000  -3.2581   0.0000   0.2925
   8.000   0.9716   0.07775   0.06964  -0.0477  0.2301  1.0000  -3.2201   0.0000   0.2940
   8.100   0.9692   0.08063   0.07257  -0.0490  0.2310  1.0000  -3.1828   0.0000   0.2955
   8.200   0.9675   0.08347   0.07544  -0.0503  0.2321  1.0000  -3.1505   0.0000   0.2969
   8.300   0.9667   0.08624   0.07824  -0.0514  0.2332  1.0000  -3.1250   0.0000   0.2980
   8.400   0.9675   0.08895   0.08098  -0.0523  0.2341  1.0000  -3.1084   0.0000   0.2988
   8.600   0.9373   0.09737   0.08930  -0.0619  0.2508  1.0000  -2.8412   0.0000   0.3108
   8.800   0.9100   0.10638   0.09810  -0.0725  0.2854  1.0000  -2.5677   0.0000   0.3243
   8.900   0.9099   0.10883   0.10054  -0.0734  0.2869  1.0000  -2.5537   0.0000   0.3253
   9.000   0.9117   0.11129   0.10302  -0.0741  0.2882  1.0000  -2.5488   0.0000   0.3258
   9.200   0.8135   0.12363   0.11466  -0.1050  0.5593  1.0000  -1.7684   0.0000   0.3733
   9.300   0.8224   0.12623   0.11733  -0.1055  0.5538  1.0000  -1.8017   0.0000   0.3726
   9.400   0.8225   0.12792   0.11909  -0.1055  0.5502  1.0000  -1.8045   0.0000   0.3725
   9.500   0.8202   0.12896   0.12013  -0.1051  0.5432  1.0000  -1.8033   0.0000   0.3722
   9.600   0.8337   0.13244   0.12368  -0.1060  0.5380  1.0000  -1.8470   0.0000   0.3712
   9.700   0.8234   0.13239   0.12358  -0.1050  0.5322  1.0000  -1.8210   0.0000   0.3715
   9.800   0.8403   0.13629   0.12757  -0.1059  0.5244  1.0000  -1.8763   0.0000   0.3700
   9.900   0.8286   0.13601   0.12725  -0.1050  0.5198  1.0000  -1.8450   0.0000   0.3706
  10.000   0.8389   0.13884   0.13013  -0.1051  0.5093  1.0000  -1.8823   0.0000   0.3691
  10.100   0.8460   0.14107   0.13240  -0.1047  0.4961  1.0000  -1.9120   0.0000   0.3676
  10.200   0.8367   0.14105   0.13234  -0.1041  0.4908  1.0000  -1.8874   0.0000   0.3681
  10.300   0.8421   0.14308   0.13440  -0.1038  0.4792  1.0000  -1.9100   0.0000   0.3669
  10.400   0.8521   0.14588   0.13725  -0.1037  0.4679  1.0000  -1.9453   0.0000   0.3652
  10.500   0.8452   0.14612   0.13746  -0.1033  0.4619  1.0000  -1.9270   0.0000   0.3656
  10.600   0.8613   0.15017   0.14159  -0.1037  0.4549  1.0000  -1.9741   0.0000   0.3638
  10.700   0.8504   0.14982   0.14119  -0.1034  0.4510  1.0000  -1.9431   0.0000   0.3649
  10.800   0.8562   0.15196   0.14336  -0.1034  0.4437  1.0000  -1.9606   0.0000   0.3640
  10.900   0.8595   0.15413   0.14554  -0.1036  0.4396  1.0000  -1.9680   0.0000   0.3637
  11.000   0.8553   0.15466   0.14606  -0.1034  0.4335  1.0000  -1.9562   0.0000   0.3640
  11.100   0.8703   0.15874   0.15021  -0.1037  0.4271  1.0000  -1.9956   0.0000   0.3622
  11.200   0.8605   0.15835   0.14977  -0.1036  0.4234  1.0000  -1.9668   0.0000   0.3633
  11.300   0.8760   0.16239   0.15388  -0.1035  0.4134  1.0000  -2.0090   0.0000   0.3611
  11.400   0.8665   0.16201   0.15345  -0.1036  0.4106  1.0000  -1.9800   0.0000   0.3624
  11.500   0.8783   0.16533   0.15682  -0.1033  0.3993  1.0000  -2.0129   0.0000   0.3604
  11.600   0.8699   0.16506   0.15651  -0.1034  0.3959  1.0000  -1.9865   0.0000   0.3616
  11.700   0.8808   0.16824   0.15973  -0.1031  0.3850  1.0000  -2.0156   0.0000   0.3597
  11.800   0.8737   0.16809   0.15955  -0.1033  0.3809  1.0000  -1.9925   0.0000   0.3607
  11.900   0.8881   0.17213   0.16365  -0.1030  0.3717  1.0000  -2.0280   0.0000   0.3585
  12.000   0.8799   0.17174   0.16321  -0.1034  0.3687  1.0000  -2.0008   0.0000   0.3599


