xflr5 v6.47

 Calculated polar for: AG18

 1 1 Reynolds number fixed          Mach number fixed         

 xtrf =   1.000 (top)        1.000 (bottom)
 Mach =   0.000     Re =     0.100 e 6     Ncrit =   9.000

  alpha     CL        CD       CDp       Cm    Top Xtr Bot Xtr   Cpmin    Chinge    XCp    
 ------- -------- --------- --------- -------- ------- ------- -------- --------- ---------
  -7.000  -0.5018   0.08796   0.08338  -0.0089  1.0000  0.0828  -1.8265   0.0000   0.2311
  -6.900  -0.4930   0.08581   0.08122  -0.0184  1.0000  0.0834  -1.9395   0.0000   0.2114
  -6.600  -0.4873   0.08138   0.07687  -0.0055  1.0000  0.0887  -1.7340   0.0000   0.2376
  -6.500  -0.4821   0.07988   0.07537  -0.0068  1.0000  0.0911  -1.7330   0.0000   0.2348
  -6.400  -0.4753   0.07807   0.07356  -0.0107  1.0000  0.0941  -1.7626   0.0000   0.2264
  -6.200  -0.4591   0.07305   0.06848  -0.0219  1.0000  0.0980  -1.8770   0.0000   0.2013
  -6.100  -0.4562   0.07187   0.06734  -0.0189  1.0000  0.0992  -1.8270   0.0000   0.2075
  -6.000  -0.4516   0.07067   0.06616  -0.0177  1.0000  0.1009  -1.7957   0.0000   0.2098
  -5.900  -0.4454   0.06928   0.06477  -0.0181  1.0000  0.1033  -1.7823   0.0000   0.2083
  -5.700  -0.3858   0.05270   0.04854  -0.0208  1.0000  0.1150  -1.6191   0.0000   0.1956
  -5.600  -0.3806   0.05108   0.04691  -0.0216  1.0000  0.1180  -1.6139   0.0000   0.1928
  -5.500  -0.4144   0.06192   0.05734  -0.0262  1.0000  0.1152  -1.8099   0.0000   0.1859
  -5.400  -0.4060   0.06043   0.05582  -0.0275  1.0000  0.1191  -1.8038   0.0000   0.1814
  -5.300  -0.3640   0.04488   0.04065  -0.0273  1.0000  0.1276  -1.6466   0.0000   0.1746
  -5.200  -0.3582   0.04350   0.03928  -0.0272  1.0000  0.1307  -1.6278   0.0000   0.1736
  -5.100  -0.3806   0.05523   0.05055  -0.0319  1.0000  0.1303  -1.7971   0.0000   0.1652
  -4.900  -0.3611   0.05167   0.04687  -0.0357  1.0000  0.1412  -1.7955   0.0000   0.1503
  -4.800  -0.3530   0.05047   0.04567  -0.0358  1.0000  0.1452  -1.7705   0.0000   0.1478
  -4.300  -0.2719   0.03436   0.02809  -0.0499  1.0000  0.0809  -2.2188   0.0000   0.0651
  -4.200  -0.2571   0.03113   0.02447  -0.0507  1.0000  0.0664  -2.3486   0.0000   0.0510
  -4.100  -0.2398   0.02891   0.02144  -0.0512  1.0000  0.0576  -2.5216   0.0000   0.0345
  -4.000  -0.2292   0.02736   0.01980  -0.0513  1.0000  0.0564  -2.5013   0.0000   0.0241
  -3.900  -0.2182   0.02593   0.01822  -0.0514  1.0000  0.0559  -2.4869   0.0000   0.0121
  -3.800  -0.2065   0.02496   0.01700  -0.0514  1.0000  0.0564  -2.4697   0.0000  -0.0013
  -3.700  -0.1947   0.02408   0.01586  -0.0514  1.0000  0.0576  -2.4496   0.0000  -0.0162
  -3.600  -0.1844   0.02255   0.01423  -0.0516  1.0000  0.0594  -2.4110   0.0000  -0.0322
  -3.500  -0.1736   0.02168   0.01330  -0.0515  1.0000  0.0608  -2.3599   0.0000  -0.0492
  -3.400  -0.1623   0.02078   0.01224  -0.0513  1.0000  0.0613  -2.3310   0.0000  -0.0691
  -3.300  -0.1510   0.01994   0.01128  -0.0511  1.0000  0.0622  -2.2967   0.0000  -0.0914
  -3.200  -0.1398   0.01918   0.01041  -0.0509  1.0000  0.0636  -2.2577   0.0000  -0.1169
  -3.100  -0.1286   0.01847   0.00960  -0.0506  1.0000  0.0655  -2.2173   0.0000  -0.1465
  -3.000  -0.1174   0.01788   0.00888  -0.0503  1.0000  0.0685  -2.1750   0.0000  -0.1816
  -2.900  -0.1069   0.01717   0.00820  -0.0502  1.0000  0.0740  -2.1428   0.0000  -0.2228
  -2.800  -0.0961   0.01673   0.00773  -0.0499  1.0000  0.0807  -2.1130   0.0000  -0.2732
  -2.700  -0.0853   0.01600   0.00701  -0.0497  1.0000  0.0864  -2.1011   0.0000  -0.3363
  -2.600  -0.0744   0.01551   0.00651  -0.0494  1.0000  0.0961  -2.0779   0.0000  -0.4180
  -2.500  -0.0639   0.01494   0.00605  -0.0493  1.0000  0.1121  -2.0391   0.0000  -0.5261
  -2.400  -0.0532   0.01430   0.00555  -0.0492  1.0000  0.1337  -2.0082   0.0000  -0.6806
  -2.300  -0.0424   0.01363   0.00513  -0.0492  1.0000  0.1751  -1.9655   0.0000  -0.9170
  -2.200  -0.0316   0.01279   0.00477  -0.0493  1.0000  0.2540  -1.9162   0.0000  -1.3192
  -2.100  -0.0217   0.01209   0.00460  -0.0492  1.0000  0.3733  -1.8479   0.0000  -2.0313
  -2.000  -0.0124   0.01160   0.00452  -0.0488  1.0000  0.4791  -1.7658   0.0000  -3.7117
  -1.900  -0.0035   0.01116   0.00443  -0.0481  1.0000  0.5752  -1.6818   0.0000  -13.4864
  -1.800   0.0033   0.01066   0.00434  -0.0468  1.0000  0.6801  -1.6047   0.0000  14.4006
  -1.700   0.0098   0.00986   0.00414  -0.0446  1.0000  0.9895  -1.5260   0.0000   4.8415
  -1.600   0.0207   0.00987   0.00398  -0.0446  1.0000  1.0000  -1.4359   0.0000   2.4120
  -1.500   0.0316   0.00988   0.00385  -0.0446  1.0000  1.0000  -1.3458   0.0000   1.6658
  -1.400   0.0424   0.00989   0.00374  -0.0446  1.0000  1.0000  -1.2566   0.0000   1.3050
  -1.300   0.0530   0.00991   0.00364  -0.0445  1.0000  1.0000  -1.1683   0.0000   1.0917
  -1.200   0.0636   0.00993   0.00356  -0.0445  1.0000  1.0000  -1.0810   0.0000   0.9506
  -1.100   0.0741   0.00996   0.00349  -0.0444  1.0000  1.0000  -0.9941   0.0000   0.8501
  -1.000   0.0846   0.00998   0.00340  -0.0443  1.0000  1.0000  -0.9031   0.0000   0.7749
  -0.900   0.0950   0.01001   0.00336  -0.0443  1.0000  1.0000  -0.8208   0.0000   0.7165
  -0.800   0.1054   0.01005   0.00332  -0.0442  1.0000  1.0000  -0.7479   0.0000   0.6698
  -0.700   0.1157   0.01009   0.00329  -0.0441  1.0000  1.0000  -0.6844   0.0000   0.6317
  -0.600   0.1260   0.01013   0.00327  -0.0441  1.0000  1.0000  -0.6220   0.0000   0.5999
  -0.500   0.1363   0.01017   0.00326  -0.0440  1.0000  1.0000  -0.5607   0.0000   0.5730
  -0.400   0.1465   0.01023   0.00327  -0.0440  1.0000  1.0000  -0.5007   0.0000   0.5500
  -0.300   0.1567   0.01028   0.00328  -0.0439  1.0000  1.0000  -0.4417   0.0000   0.5301
  -0.200   0.1669   0.01034   0.00330  -0.0439  1.0000  1.0000  -0.3922   0.0000   0.5127
  -0.100   0.1770   0.01041   0.00332  -0.0439  1.0000  1.0000  -0.3854   0.0000   0.4974
   0.000   0.1872   0.01048   0.00336  -0.0439  1.0000  1.0000  -0.3969   0.0000   0.4839
   0.100   0.1973   0.01056   0.00340  -0.0439  1.0000  1.0000  -0.4085   0.0000   0.4718
   0.200   0.2073   0.01065   0.00346  -0.0439  1.0000  1.0000  -0.4207   0.0000   0.4611
   0.300   0.2173   0.01075   0.00353  -0.0439  1.0000  1.0000  -0.4331   0.0000   0.4514
   0.400   0.2273   0.01085   0.00361  -0.0440  1.0000  1.0000  -0.4454   0.0000   0.4427
   0.500   0.2372   0.01096   0.00370  -0.0441  1.0000  1.0000  -0.4577   0.0000   0.4348
   0.600   0.2470   0.01108   0.00381  -0.0441  1.0000  1.0000  -0.4710   0.0000   0.4277
   0.700   0.2567   0.01122   0.00394  -0.0442  1.0000  1.0000  -0.4842   0.0000   0.4213
   0.800   0.2663   0.01136   0.00407  -0.0444  1.0000  1.0000  -0.4974   0.0000   0.4155
   0.900   0.2759   0.01152   0.00423  -0.0445  1.0000  1.0000  -0.5106   0.0000   0.4102
   1.000   0.2999   0.01162   0.00434  -0.0473  0.9924  1.0000  -0.5375   0.0000   0.4066
   1.100   0.3242   0.01170   0.00443  -0.0501  0.9840  1.0000  -0.5651   0.0000   0.4033
   1.200   0.3471   0.01175   0.00449  -0.0525  0.9748  1.0000  -0.5930   0.0000   0.4001
   1.300   0.3718   0.01177   0.00454  -0.0552  0.9671  1.0000  -0.6242   0.0000   0.3972
   1.400   0.3942   0.01177   0.00456  -0.0574  0.9577  1.0000  -0.6537   0.0000   0.3942
   1.500   0.4145   0.01176   0.00458  -0.0590  0.9476  1.0000  -0.6846   0.0000   0.3910
   1.600   0.4345   0.01173   0.00458  -0.0605  0.9377  1.0000  -0.7156   0.0000   0.3878
   1.700   0.4533   0.01169   0.00456  -0.0617  0.9273  1.0000  -0.7458   0.0000   0.3845
   1.800   0.4688   0.01166   0.00459  -0.0621  0.9148  1.0000  -0.7744   0.0000   0.3810
   1.900   0.4832   0.01164   0.00458  -0.0623  0.9018  1.0000  -0.8038   0.0000   0.3774
   2.000   0.4963   0.01162   0.00457  -0.0622  0.8882  1.0000  -0.8320   0.0000   0.3737
   2.100   0.5083   0.01161   0.00457  -0.0618  0.8742  1.0000  -0.8590   0.0000   0.3699
   2.200   0.5193   0.01160   0.00456  -0.0613  0.8597  1.0000  -0.8850   0.0000   0.3662
   2.300   0.5297   0.01161   0.00456  -0.0605  0.8447  1.0000  -0.9119   0.0000   0.3624
   2.400   0.5395   0.01163   0.00456  -0.0597  0.8292  1.0000  -0.9409   0.0000   0.3588
   2.500   0.5488   0.01167   0.00458  -0.0589  0.8123  1.0000  -0.9693   0.0000   0.3553
   2.600   0.5581   0.01172   0.00460  -0.0580  0.7951  1.0000  -0.9978   0.0000   0.3519
   2.700   0.5673   0.01177   0.00462  -0.0571  0.7779  1.0000  -1.0264   0.0000   0.3485
   2.800   0.5764   0.01184   0.00463  -0.0561  0.7608  1.0000  -1.0551   0.0000   0.3453
   2.900   0.5856   0.01192   0.00468  -0.0553  0.7415  1.0000  -1.0839   0.0000   0.3423
   3.000   0.5947   0.01201   0.00477  -0.0545  0.7224  1.0000  -1.1184   0.0000   0.3394
   3.100   0.6039   0.01211   0.00481  -0.0537  0.7032  1.0000  -1.1532   0.0000   0.3366
   3.200   0.6131   0.01223   0.00487  -0.0529  0.6822  1.0000  -1.1881   0.0000   0.3340
   3.300   0.6223   0.01236   0.00492  -0.0522  0.6619  1.0000  -1.2234   0.0000   0.3314
   3.400   0.6317   0.01249   0.00499  -0.0515  0.6399  1.0000  -1.2590   0.0000   0.3290
   3.500   0.6410   0.01265   0.00506  -0.0509  0.6182  1.0000  -1.2965   0.0000   0.3268
   3.600   0.6503   0.01282   0.00515  -0.0502  0.5960  1.0000  -1.3398   0.0000   0.3246
   3.700   0.6598   0.01299   0.00525  -0.0497  0.5733  1.0000  -1.3835   0.0000   0.3225
   3.800   0.6691   0.01320   0.00534  -0.0491  0.5515  1.0000  -1.4274   0.0000   0.3206
   3.900   0.6786   0.01340   0.00547  -0.0486  0.5284  1.0000  -1.4718   0.0000   0.3187
   4.000   0.6881   0.01363   0.00560  -0.0481  0.5064  1.0000  -1.5208   0.0000   0.3170
   4.100   0.6976   0.01387   0.00574  -0.0477  0.4848  1.0000  -1.5743   0.0000   0.3153
   4.200   0.7072   0.01411   0.00595  -0.0473  0.4629  1.0000  -1.6284   0.0000   0.3137
   4.300   0.7166   0.01438   0.00612  -0.0468  0.4427  1.0000  -1.6828   0.0000   0.3122
   4.400   0.7263   0.01465   0.00631  -0.0465  0.4219  1.0000  -1.7471   0.0000   0.3108
   4.500   0.7358   0.01493   0.00650  -0.0461  0.4023  1.0000  -1.8123   0.0000   0.3094
   4.600   0.7454   0.01523   0.00671  -0.0458  0.3831  1.0000  -1.8826   0.0000   0.3080
   4.700   0.7551   0.01552   0.00695  -0.0455  0.3640  1.0000  -1.9647   0.0000   0.3068
   4.800   0.7646   0.01584   0.00717  -0.0452  0.3463  1.0000  -2.0571   0.0000   0.3055
   4.900   0.7742   0.01616   0.00742  -0.0449  0.3287  1.0000  -2.1505   0.0000   0.3043
   5.000   0.7839   0.01648   0.00770  -0.0446  0.3108  1.0000  -2.2602   0.0000   0.3032
   5.100   0.7935   0.01682   0.00798  -0.0444  0.2942  1.0000  -2.3724   0.0000   0.3020
   5.200   0.8031   0.01717   0.00826  -0.0441  0.2782  1.0000  -2.4859   0.0000   0.3009
   5.300   0.8126   0.01754   0.00860  -0.0438  0.2628  1.0000  -2.5969   0.0000   0.2999
   5.400   0.8220   0.01793   0.00891  -0.0436  0.2481  1.0000  -2.7088   0.0000   0.2988
   5.500   0.8317   0.01832   0.00927  -0.0433  0.2336  1.0000  -2.8232   0.0000   0.2978
   5.600   0.8412   0.01873   0.00964  -0.0430  0.2197  1.0000  -2.9390   0.0000   0.2968
   5.700   0.8507   0.01914   0.01000  -0.0428  0.2062  1.0000  -3.0561   0.0000   0.2959
   5.800   0.8601   0.01957   0.01036  -0.0425  0.1934  1.0000  -3.1743   0.0000   0.2949
   5.900   0.8698   0.01998   0.01080  -0.0423  0.1811  1.0000  -3.2908   0.0000   0.2940
   6.000   0.8795   0.02046   0.01129  -0.0420  0.1697  1.0000  -3.4050   0.0000   0.2930
   6.100   0.8890   0.02095   0.01179  -0.0417  0.1588  1.0000  -3.5196   0.0000   0.2921
   6.200   0.8983   0.02145   0.01226  -0.0414  0.1484  1.0000  -3.6364   0.0000   0.2912
   6.300   0.9074   0.02200   0.01269  -0.0412  0.1389  1.0000  -3.7560   0.0000   0.2904
   6.400   0.9172   0.02251   0.01331  -0.0409  0.1297  1.0000  -3.8633   0.0000   0.2894
   6.500   0.9266   0.02320   0.01402  -0.0405  0.1216  1.0000  -3.9681   0.0000   0.2885
   6.600   0.9356   0.02379   0.01449  -0.0403  0.1135  1.0000  -4.0857   0.0000   0.2878
   6.700   0.9451   0.02428   0.01515  -0.0400  0.1047  1.0000  -4.1877   0.0000   0.2869
   6.800   0.9541   0.02516   0.01597  -0.0397  0.0985  1.0000  -4.2937   0.0000   0.2861
   6.900   0.9638   0.02583   0.01683  -0.0392  0.0919  1.0000  -4.3779   0.0000   0.2851
   7.000   0.9725   0.02679   0.01765  -0.0390  0.0860  1.0000  -4.4799   0.0000   0.2844
   7.100   0.9818   0.02725   0.01835  -0.0386  0.0793  1.0000  -4.5648   0.0000   0.2835
   7.200   0.9904   0.02825   0.01921  -0.0384  0.0745  1.0000  -4.6618   0.0000   0.2828
   7.300   0.9998   0.02941   0.02063  -0.0378  0.0708  1.0000  -4.6989   0.0000   0.2818
   7.400   1.0088   0.03018   0.02155  -0.0374  0.0663  1.0000  -4.7654   0.0000   0.2810
   7.500   1.0168   0.03125   0.02246  -0.0373  0.0619  1.0000  -4.8663   0.0000   0.2805
   7.600   1.0252   0.03231   0.02383  -0.0367  0.0587  1.0000  -4.9141   0.0000   0.2795
   7.700   1.0336   0.03360   0.02538  -0.0361  0.0563  1.0000  -4.9631   0.0000   0.2786
   7.800   1.0419   0.03487   0.02681  -0.0356  0.0542  1.0000  -5.0232   0.0000   0.2777
   7.900   1.0497   0.03590   0.02791  -0.0353  0.0520  1.0000  -5.1128   0.0000   0.2770
   8.000   1.0560   0.03779   0.02975  -0.0352  0.0497  1.0000  -5.1954   0.0000   0.2766
   8.100   1.0616   0.03923   0.03154  -0.0345  0.0481  1.0000  -5.2168   0.0000   0.2758
   8.200   1.0674   0.04055   0.03322  -0.0339  0.0464  1.0000  -5.2383   0.0000   0.2749
   8.300   1.0724   0.04227   0.03524  -0.0333  0.0453  1.0000  -5.2470   0.0000   0.2742
   8.400   1.0765   0.04425   0.03750  -0.0328  0.0448  1.0000  -5.2402   0.0000   0.2735
   8.500   1.0797   0.04635   0.03986  -0.0322  0.0445  1.0000  -5.2251   0.0000   0.2728
   8.600   1.0817   0.04855   0.04233  -0.0317  0.0444  1.0000  -5.2012   0.0000   0.2723
   8.700   1.0827   0.05086   0.04488  -0.0313  0.0444  1.0000  -5.1689   0.0000   0.2718
   8.800   1.0826   0.05324   0.04751  -0.0310  0.0445  1.0000  -5.1297   0.0000   0.2714
   8.900   1.0815   0.05568   0.05017  -0.0307  0.0447  1.0000  -5.0858   0.0000   0.2711
   9.000   1.0794   0.05814   0.05283  -0.0305  0.0450  1.0000  -5.0392   0.0000   0.2710
   9.100   1.0766   0.06060   0.05546  -0.0304  0.0453  1.0000  -4.9917   0.0000   0.2709
   9.200   1.0729   0.06303   0.05804  -0.0304  0.0457  1.0000  -4.9445   0.0000   0.2710
   9.300   1.0686   0.06542   0.06056  -0.0305  0.0460  1.0000  -4.8981   0.0000   0.2711
   9.400   1.0636   0.06777   0.06303  -0.0307  0.0463  1.0000  -4.8528   0.0000   0.2713
   9.500   1.0581   0.07008   0.06543  -0.0310  0.0466  1.0000  -4.8088   0.0000   0.2717
   9.600   1.0521   0.07235   0.06778  -0.0313  0.0469  1.0000  -4.7658   0.0000   0.2722
   9.700   1.0451   0.07442   0.06992  -0.0316  0.0472  1.0000  -4.7250   0.0000   0.2726
   9.800   1.0379   0.07654   0.07209  -0.0321  0.0474  1.0000  -4.6842   0.0000   0.2732
   9.900   1.0306   0.07876   0.07435  -0.0331  0.0477  1.0000  -4.6423   0.0000   0.2742
  10.000   1.0235   0.08113   0.07676  -0.0343  0.0479  1.0000  -4.5988   0.0000   0.2756
  10.100   1.0169   0.08365   0.07931  -0.0359  0.0481  1.0000  -4.5547   0.0000   0.2772
  10.200   1.0109   0.08629   0.08196  -0.0375  0.0484  1.0000  -4.5119   0.0000   0.2789
  10.300   1.0061   0.08894   0.08463  -0.0388  0.0487  1.0000  -4.4765   0.0000   0.2804
  10.900   0.7998   0.11412   0.10993  -0.0479  0.0717  1.0000  -2.8463   0.0000   0.3026
  11.000   0.7997   0.11602   0.11183  -0.0477  0.0726  1.0000  -2.8440   0.0000   0.3023
  11.100   0.8068   0.11703   0.11286  -0.0459  0.0735  1.0000  -2.9250   0.0000   0.2994
  11.900   0.7365   0.14418   0.13981  -0.0623  0.1188  1.0000  -1.9676   0.0000   0.3275
  12.000   0.7377   0.14553   0.14117  -0.0623  0.1170  1.0000  -1.9678   0.0000   0.3273


