xflr5 v6.47

 Calculated polar for: AG18

 1 1 Reynolds number fixed          Mach number fixed         

 xtrf =   1.000 (top)        1.000 (bottom)
 Mach =   0.000     Re =     0.060 e 6     Ncrit =   9.000

  alpha     CL        CD       CDp       Cm    Top Xtr Bot Xtr   Cpmin    Chinge    XCp    
 ------- -------- --------- --------- -------- ------- ------- -------- --------- ---------
  -7.000  -0.5132   0.09395   0.08815   0.0015  1.0000  0.1640  -1.6568   0.0000   0.2518
  -6.900  -0.5104   0.09211   0.08635  -0.0000  1.0000  0.1657  -1.6697   0.0000   0.2488
  -6.800  -0.5030   0.08998   0.08421   0.0039  1.0000  0.1685  -1.6246   0.0000   0.2566
  -6.700  -0.4981   0.08855   0.08278   0.0040  1.0000  0.1724  -1.6145   0.0000   0.2569
  -6.600  -0.4979   0.08796   0.08222  -0.0043  1.0000  0.1781  -1.6814   0.0000   0.2404
  -6.500  -0.4933   0.08575   0.08004  -0.0025  1.0000  0.1799  -1.6630   0.0000   0.2439
  -6.400  -0.4873   0.08402   0.07832   0.0003  1.0000  0.1829  -1.6300   0.0000   0.2495
  -6.300  -0.4825   0.08268   0.07699  -0.0005  1.0000  0.1880  -1.6270   0.0000   0.2479
  -6.200  -0.4794   0.08123   0.07556  -0.0064  1.0000  0.1932  -1.6704   0.0000   0.2356
  -6.100  -0.4740   0.07950   0.07385  -0.0031  1.0000  0.1960  -1.6348   0.0000   0.2424
  -6.000  -0.4686   0.07817   0.07252  -0.0035  1.0000  0.2016  -1.6263   0.0000   0.2416
  -5.900  -0.4641   0.07655   0.07091  -0.0076  1.0000  0.2076  -1.6514   0.0000   0.2326
  -5.800  -0.4587   0.07507   0.06945  -0.0051  1.0000  0.2115  -1.6208   0.0000   0.2379
  -5.700  -0.4529   0.07366   0.06803  -0.0104  1.0000  0.2208  -1.6497   0.0000   0.2261
  -5.600  -0.4483   0.07218   0.06658  -0.0066  1.0000  0.2249  -1.6101   0.0000   0.2343
  -5.500  -0.4423   0.07075   0.06515  -0.0103  1.0000  0.2350  -1.6243   0.0000   0.2258
  -5.400  -0.4374   0.06947   0.06389  -0.0073  1.0000  0.2413  -1.5895   0.0000   0.2324
  -5.300  -0.4320   0.06799   0.06242  -0.0088  1.0000  0.2507  -1.5878   0.0000   0.2288
  -5.200  -0.4257   0.06670   0.06113  -0.0110  1.0000  0.2626  -1.5880   0.0000   0.2234
  -5.100  -0.4208   0.06540   0.05986  -0.0081  1.0000  0.2688  -1.5566   0.0000   0.2299
  -5.000  -0.4152   0.06399   0.05846  -0.0088  1.0000  0.2791  -1.5487   0.0000   0.2279
  -4.900  -0.4090   0.06267   0.05714  -0.0100  1.0000  0.2912  -1.5422   0.0000   0.2248
  -4.700  -0.3973   0.05998   0.05450  -0.0087  1.0000  0.3083  -1.5103   0.0000   0.2272
  -4.400  -0.3046   0.04366   0.03675  -0.0452  1.0000  0.1518  -1.9562   0.0000   0.1007
  -4.300  -0.3084   0.04469   0.03824  -0.0405  1.0000  0.1827  -1.7998   0.0000   0.1176
  -4.200  -0.2703   0.03689   0.02920  -0.0493  1.0000  0.1081  -2.1554   0.0000   0.0664
  -4.100  -0.2591   0.03509   0.02731  -0.0497  1.0000  0.1045  -2.1539   0.0000   0.0567
  -3.900  -0.2302   0.03128   0.02261  -0.0513  1.0000  0.0954  -2.2434   0.0000   0.0253
  -3.800  -0.2185   0.02986   0.02102  -0.0515  1.0000  0.0946  -2.2336   0.0000   0.0125
  -3.700  -0.2066   0.02853   0.01944  -0.0516  1.0000  0.0941  -2.2267   0.0000  -0.0019
  -3.600  -0.1943   0.02738   0.01801  -0.0517  1.0000  0.0950  -2.2160   0.0000  -0.0182
  -3.500  -0.1819   0.02636   0.01668  -0.0518  1.0000  0.0974  -2.2022   0.0000  -0.0368
  -3.400  -0.1724   0.02540   0.01587  -0.0517  1.0000  0.1021  -2.1317   0.0000  -0.0522
  -3.300  -0.1608   0.02451   0.01482  -0.0516  1.0000  0.1054  -2.1004   0.0000  -0.0733
  -3.200  -0.1487   0.02356   0.01363  -0.0515  1.0000  0.1077  -2.0808   0.0000  -0.0985
  -3.100  -0.1364   0.02273   0.01250  -0.0512  1.0000  0.1103  -2.0899   0.0000  -0.1281
  -3.000  -0.1260   0.02174   0.01161  -0.0510  1.0000  0.1152  -2.0684   0.0000  -0.1576
  -2.900  -0.1147   0.02112   0.01085  -0.0508  1.0000  0.1246  -2.0551   0.0000  -0.1960
  -2.800  -0.1041   0.02043   0.01020  -0.0506  1.0000  0.1356  -2.0283   0.0000  -0.2388
  -2.700  -0.0934   0.01962   0.00944  -0.0502  1.0000  0.1458  -2.0122   0.0000  -0.2912
  -2.600  -0.0825   0.01892   0.00875  -0.0499  1.0000  0.1625  -1.9928   0.0000  -0.3584
  -2.500  -0.0723   0.01824   0.00822  -0.0496  1.0000  0.1873  -1.9608   0.0000  -0.4408
  -2.400  -0.0615   0.01746   0.00756  -0.0493  1.0000  0.2207  -1.9398   0.0000  -0.5555
  -2.300  -0.0505   0.01665   0.00712  -0.0491  1.0000  0.2817  -1.8995   0.0000  -0.7286
  -2.200  -0.0399   0.01564   0.00670  -0.0489  1.0000  0.3887  -1.8574   0.0000  -0.9818
  -2.100  -0.0323   0.01464   0.00641  -0.0478  1.0000  0.5296  -1.8055   0.0000  -1.2372
  -2.000  -0.0288   0.01376   0.00620  -0.0454  1.0000  0.6660  -1.7529   0.0000  -1.3331
  -1.900  -0.0221   0.01269   0.00577  -0.0428  1.0000  1.0000  -1.6822   0.0000  -1.6945
  -1.800  -0.0095   0.01268   0.00543  -0.0432  1.0000  1.0000  -1.5946   0.0000  -4.3012
  -1.700   0.0019   0.01269   0.00519  -0.0433  1.0000  1.0000  -1.5070   0.0000  23.0080
  -1.600   0.0130   0.01269   0.00499  -0.0434  1.0000  1.0000  -1.4196   0.0000   3.6123
  -1.500   0.0238   0.01270   0.00483  -0.0434  1.0000  1.0000  -1.3328   0.0000   2.0815
  -1.400   0.0344   0.01271   0.00468  -0.0433  1.0000  1.0000  -1.2467   0.0000   1.5128
  -1.300   0.0450   0.01272   0.00455  -0.0433  1.0000  1.0000  -1.1614   0.0000   1.2150
  -1.200   0.0555   0.01274   0.00444  -0.0432  1.0000  1.0000  -1.0770   0.0000   1.0313
  -1.100   0.0659   0.01276   0.00434  -0.0432  1.0000  1.0000  -0.9931   0.0000   0.9066
  -1.000   0.0762   0.01278   0.00423  -0.0431  1.0000  1.0000  -0.9044   0.0000   0.8162
  -0.900   0.0865   0.01281   0.00416  -0.0430  1.0000  1.0000  -0.8249   0.0000   0.7477
  -0.800   0.0968   0.01285   0.00410  -0.0429  1.0000  1.0000  -0.7614   0.0000   0.6940
  -0.700   0.1070   0.01288   0.00405  -0.0428  1.0000  1.0000  -0.6990   0.0000   0.6508
  -0.600   0.1171   0.01292   0.00401  -0.0428  1.0000  1.0000  -0.6376   0.0000   0.6152
  -0.500   0.1272   0.01296   0.00398  -0.0427  1.0000  1.0000  -0.5773   0.0000   0.5854
  -0.400   0.1373   0.01301   0.00397  -0.0426  1.0000  1.0000  -0.5181   0.0000   0.5601
  -0.300   0.1473   0.01307   0.00396  -0.0425  1.0000  1.0000  -0.4600   0.0000   0.5384
  -0.200   0.1572   0.01312   0.00396  -0.0424  1.0000  1.0000  -0.4103   0.0000   0.5195
  -0.100   0.1672   0.01319   0.00398  -0.0424  1.0000  1.0000  -0.3788   0.0000   0.5029
   0.000   0.1770   0.01325   0.00400  -0.0423  1.0000  1.0000  -0.3901   0.0000   0.4883
   0.100   0.1869   0.01333   0.00402  -0.0422  1.0000  1.0000  -0.4014   0.0000   0.4753
   0.200   0.1967   0.01341   0.00406  -0.0422  1.0000  1.0000  -0.4128   0.0000   0.4638
   0.300   0.2065   0.01350   0.00411  -0.0421  1.0000  1.0000  -0.4250   0.0000   0.4533
   0.400   0.2162   0.01359   0.00418  -0.0421  1.0000  1.0000  -0.4372   0.0000   0.4440
   0.500   0.2260   0.01369   0.00426  -0.0421  1.0000  1.0000  -0.4493   0.0000   0.4355
   0.600   0.2357   0.01380   0.00435  -0.0421  1.0000  1.0000  -0.4619   0.0000   0.4278
   0.700   0.2454   0.01392   0.00445  -0.0422  1.0000  1.0000  -0.4751   0.0000   0.4208
   0.800   0.2549   0.01405   0.00457  -0.0422  1.0000  1.0000  -0.4882   0.0000   0.4144
   0.900   0.2645   0.01419   0.00470  -0.0423  1.0000  1.0000  -0.5012   0.0000   0.4086
   1.000   0.2739   0.01434   0.00485  -0.0423  1.0000  1.0000  -0.5148   0.0000   0.4033
   1.100   0.2832   0.01450   0.00501  -0.0424  1.0000  1.0000  -0.5289   0.0000   0.3985
   1.200   0.2925   0.01468   0.00519  -0.0425  1.0000  1.0000  -0.5429   0.0000   0.3941
   1.300   0.3016   0.01487   0.00539  -0.0427  1.0000  1.0000  -0.5568   0.0000   0.3901
   1.400   0.3107   0.01507   0.00560  -0.0429  1.0000  1.0000  -0.5707   0.0000   0.3865
   1.500   0.3196   0.01530   0.00583  -0.0431  1.0000  1.0000  -0.5858   0.0000   0.3832
   1.600   0.3284   0.01554   0.00609  -0.0433  1.0000  1.0000  -0.6008   0.0000   0.3803
   1.700   0.3370   0.01581   0.00638  -0.0436  1.0000  1.0000  -0.6155   0.0000   0.3777
   1.800   0.3455   0.01610   0.00669  -0.0439  1.0000  1.0000  -0.6299   0.0000   0.3754
   1.900   0.3579   0.01641   0.00703  -0.0450  0.9975  1.0000  -0.6494   0.0000   0.3741
   2.000   0.3913   0.01667   0.00736  -0.0498  0.9841  1.0000  -0.6930   0.0000   0.3754
   2.100   0.4237   0.01685   0.00762  -0.0541  0.9700  1.0000  -0.7363   0.0000   0.3759
   2.200   0.4551   0.01694   0.00785  -0.0581  0.9554  1.0000  -0.7839   0.0000   0.3757
   2.300   0.4867   0.01696   0.00797  -0.0618  0.9407  1.0000  -0.8338   0.0000   0.3750
   2.400   0.5123   0.01693   0.00805  -0.0641  0.9246  1.0000  -0.8772   0.0000   0.3733
   2.500   0.5347   0.01688   0.00808  -0.0657  0.9078  1.0000  -0.9209   0.0000   0.3709
   2.600   0.5546   0.01680   0.00809  -0.0666  0.8908  1.0000  -0.9645   0.0000   0.3680
   2.700   0.5722   0.01672   0.00806  -0.0669  0.8738  1.0000  -1.0053   0.0000   0.3648
   2.800   0.5867   0.01665   0.00804  -0.0665  0.8562  1.0000  -1.0420   0.0000   0.3612
   2.900   0.5981   0.01664   0.00806  -0.0656  0.8368  1.0000  -1.0740   0.0000   0.3575
   3.000   0.6091   0.01660   0.00811  -0.0645  0.8183  1.0000  -1.1111   0.0000   0.3537
   3.100   0.6187   0.01661   0.00811  -0.0633  0.7990  1.0000  -1.1468   0.0000   0.3499
   3.200   0.6276   0.01664   0.00814  -0.0619  0.7787  1.0000  -1.1814   0.0000   0.3463
   3.300   0.6365   0.01667   0.00814  -0.0604  0.7593  1.0000  -1.2164   0.0000   0.3426
   3.400   0.6447   0.01676   0.00820  -0.0591  0.7375  1.0000  -1.2499   0.0000   0.3392
   3.500   0.6532   0.01684   0.00823  -0.0577  0.7169  1.0000  -1.2850   0.0000   0.3358
   3.600   0.6617   0.01695   0.00830  -0.0564  0.6944  1.0000  -1.3261   0.0000   0.3327
   3.700   0.6702   0.01709   0.00839  -0.0552  0.6720  1.0000  -1.3676   0.0000   0.3298
   3.800   0.6788   0.01724   0.00845  -0.0540  0.6502  1.0000  -1.4097   0.0000   0.3269
   3.900   0.6874   0.01742   0.00858  -0.0530  0.6264  1.0000  -1.4514   0.0000   0.3243
   4.000   0.6961   0.01762   0.00870  -0.0520  0.6038  1.0000  -1.4955   0.0000   0.3218
   4.100   0.7049   0.01784   0.00882  -0.0510  0.5813  1.0000  -1.5467   0.0000   0.3194
   4.200   0.7138   0.01810   0.00907  -0.0501  0.5578  1.0000  -1.5976   0.0000   0.3172
   4.300   0.7227   0.01837   0.00923  -0.0493  0.5357  1.0000  -1.6495   0.0000   0.3151
   4.400   0.7317   0.01866   0.00944  -0.0485  0.5132  1.0000  -1.7066   0.0000   0.3131
   4.500   0.7407   0.01898   0.00968  -0.0478  0.4909  1.0000  -1.7681   0.0000   0.3113
   4.600   0.7498   0.01932   0.00990  -0.0471  0.4701  1.0000  -1.8308   0.0000   0.3095
   4.700   0.7589   0.01968   0.01021  -0.0465  0.4481  1.0000  -1.9025   0.0000   0.3078
   4.800   0.7680   0.02005   0.01047  -0.0458  0.4284  1.0000  -1.9841   0.0000   0.3062
   4.900   0.7773   0.02046   0.01083  -0.0453  0.4076  1.0000  -2.0706   0.0000   0.3047
   5.000   0.7865   0.02087   0.01115  -0.0447  0.3884  1.0000  -2.1594   0.0000   0.3032
   5.100   0.7957   0.02132   0.01151  -0.0442  0.3696  1.0000  -2.2493   0.0000   0.3019
   5.200   0.8051   0.02178   0.01194  -0.0438  0.3507  1.0000  -2.3529   0.0000   0.3006
   5.300   0.8143   0.02224   0.01232  -0.0433  0.3332  1.0000  -2.4593   0.0000   0.2992
   5.400   0.8236   0.02275   0.01277  -0.0428  0.3169  1.0000  -2.5632   0.0000   0.2980
   5.500   0.8330   0.02328   0.01332  -0.0424  0.3001  1.0000  -2.6646   0.0000   0.2968
   5.600   0.8424   0.02382   0.01385  -0.0420  0.2839  1.0000  -2.7689   0.0000   0.2957
   5.700   0.8516   0.02434   0.01435  -0.0416  0.2683  1.0000  -2.8751   0.0000   0.2946
   5.800   0.8610   0.02491   0.01490  -0.0412  0.2538  1.0000  -2.9807   0.0000   0.2935
   5.900   0.8706   0.02558   0.01556  -0.0408  0.2409  1.0000  -3.0836   0.0000   0.2924
   6.000   0.8800   0.02622   0.01619  -0.0404  0.2279  1.0000  -3.1873   0.0000   0.2914
   6.100   0.8892   0.02681   0.01678  -0.0400  0.2149  1.0000  -3.2925   0.0000   0.2904
   6.200   0.8984   0.02744   0.01739  -0.0396  0.2028  1.0000  -3.3971   0.0000   0.2894
   6.300   0.9081   0.02824   0.01805  -0.0393  0.1932  1.0000  -3.5035   0.0000   0.2884
   6.400   0.9177   0.02903   0.01902  -0.0389  0.1827  1.0000  -3.5900   0.0000   0.2875
   6.500   0.9267   0.02981   0.01989  -0.0385  0.1721  1.0000  -3.6812   0.0000   0.2865
   6.600   0.9355   0.03052   0.02061  -0.0381  0.1618  1.0000  -3.7795   0.0000   0.2856
   6.700   0.9449   0.03134   0.02132  -0.0378  0.1535  1.0000  -3.8814   0.0000   0.2848
   6.800   0.9542   0.03258   0.02288  -0.0373  0.1464  1.0000  -3.9334   0.0000   0.2838
   6.900   0.9636   0.03354   0.02370  -0.0370  0.1392  1.0000  -4.0382   0.0000   0.2830
   7.000   0.9717   0.03445   0.02497  -0.0365  0.1309  1.0000  -4.0929   0.0000   0.2821
   7.100   0.9800   0.03542   0.02593  -0.0362  0.1237  1.0000  -4.1770   0.0000   0.2814
   7.200   0.9884   0.03681   0.02762  -0.0357  0.1186  1.0000  -4.2112   0.0000   0.2805
   7.300   0.9977   0.03798   0.02870  -0.0354  0.1140  1.0000  -4.2891   0.0000   0.2797
   7.400   1.0046   0.03972   0.03077  -0.0349  0.1101  1.0000  -4.3010   0.0000   0.2789
   7.500   1.0115   0.04096   0.03229  -0.0344  0.1048  1.0000  -4.3332   0.0000   0.2781
   7.600   1.0200   0.04193   0.03300  -0.0342  0.0991  1.0000  -4.4394   0.0000   0.2775
   7.700   1.0251   0.04383   0.03540  -0.0336  0.0968  1.0000  -4.4133   0.0000   0.2768
   7.800   1.0301   0.04593   0.03786  -0.0332  0.0953  1.0000  -4.3919   0.0000   0.2761
   7.900   1.0346   0.04808   0.04032  -0.0328  0.0940  1.0000  -4.3712   0.0000   0.2755
   8.000   1.0386   0.05023   0.04273  -0.0324  0.0928  1.0000  -4.3523   0.0000   0.2751
   8.100   1.0430   0.05203   0.04471  -0.0321  0.0909  1.0000  -4.3625   0.0000   0.2745
   8.200   1.0527   0.05295   0.04527  -0.0319  0.0862  1.0000  -4.5216   0.0000   0.2739
   8.300   1.0534   0.05516   0.04787  -0.0316  0.0853  1.0000  -4.4853   0.0000   0.2735
   8.400   1.0535   0.05750   0.05052  -0.0314  0.0846  1.0000  -4.4503   0.0000   0.2733
   8.500   1.0529   0.05992   0.05320  -0.0313  0.0841  1.0000  -4.4152   0.0000   0.2733
   8.600   1.0517   0.06241   0.05592  -0.0314  0.0839  1.0000  -4.3776   0.0000   0.2733
   8.700   1.0499   0.06494   0.05863  -0.0315  0.0839  1.0000  -4.3398   0.0000   0.2734
   8.800   1.0477   0.06747   0.06132  -0.0317  0.0842  1.0000  -4.3027   0.0000   0.2736
   8.900   1.0454   0.07000   0.06397  -0.0320  0.0846  1.0000  -4.2681   0.0000   0.2739
   9.000   1.0431   0.07250   0.06657  -0.0323  0.0850  1.0000  -4.2365   0.0000   0.2742
   9.100   1.0408   0.07497   0.06913  -0.0326  0.0854  1.0000  -4.2090   0.0000   0.2745
   9.200   1.0392   0.07743   0.07164  -0.0328  0.0858  1.0000  -4.1876   0.0000   0.2748
   9.300   1.0387   0.07988   0.07413  -0.0330  0.0862  1.0000  -4.1757   0.0000   0.2749
   9.400   1.0414   0.08242   0.07667  -0.0330  0.0866  1.0000  -4.1834   0.0000   0.2747
   9.500   0.8417   0.08907   0.08371  -0.0392  0.1205  1.0000  -3.0202   0.0000   0.2904
   9.600   0.8354   0.09226   0.08688  -0.0405  0.1225  1.0000  -2.9642   0.0000   0.2922
   9.700   0.8309   0.09507   0.08968  -0.0413  0.1235  1.0000  -2.9243   0.0000   0.2935
   9.800   0.8271   0.09774   0.09234  -0.0421  0.1242  1.0000  -2.8905   0.0000   0.2946
   9.900   0.8241   0.10032   0.09490  -0.0427  0.1247  1.0000  -2.8611   0.0000   0.2955
  10.000   0.8218   0.10282   0.09739  -0.0432  0.1251  1.0000  -2.8362   0.0000   0.2962
  10.100   0.8207   0.10521   0.09979  -0.0435  0.1255  1.0000  -2.8186   0.0000   0.2966
  10.400   0.9036   0.13629   0.13046  -0.0813  0.2193  1.0000  -2.3481   0.0000   0.3336
  10.500   0.8957   0.13769   0.13182  -0.0830  0.2174  1.0000  -2.3041   0.0000   0.3362
  10.600   0.8933   0.13912   0.13324  -0.0837  0.2130  1.0000  -2.2885   0.0000   0.3371
  10.700   0.9137   0.14199   0.13621  -0.0807  0.2077  1.0000  -2.3730   0.0000   0.3317
  10.800   0.9138   0.14433   0.13852  -0.0812  0.2066  1.0000  -2.3593   0.0000   0.3322
  10.900   0.9021   0.14529   0.13943  -0.0836  0.2054  1.0000  -2.2992   0.0000   0.3359
  11.000   0.8946   0.14645   0.14055  -0.0853  0.2025  1.0000  -2.2575   0.0000   0.3384
  11.100   0.8943   0.14805   0.14214  -0.0858  0.1994  1.0000  -2.2469   0.0000   0.3390
  11.200   0.9000   0.15001   0.14413  -0.0854  0.1963  1.0000  -2.2622   0.0000   0.3378
  11.300   0.9192   0.15395   0.14814  -0.0827  0.1932  1.0000  -2.3280   0.0000   0.3329
  11.400   0.9101   0.15495   0.14909  -0.0849  0.1926  1.0000  -2.2772   0.0000   0.3360
  11.500   0.9010   0.15582   0.14991  -0.0870  0.1911  1.0000  -2.2266   0.0000   0.3392
  11.600   0.8968   0.15703   0.15110  -0.0883  0.1882  1.0000  -2.1971   0.0000   0.3410
  11.700   0.8985   0.15864   0.15271  -0.0885  0.1847  1.0000  -2.1937   0.0000   0.3411
  11.800   0.9163   0.16220   0.15633  -0.0858  0.1793  1.0000  -2.2606   0.0000   0.3361
  11.900   0.9094   0.16320   0.15729  -0.0877  0.1785  1.0000  -2.2161   0.0000   0.3388
  12.000   0.9033   0.16417   0.15823  -0.0895  0.1769  1.0000  -2.1756   0.0000   0.3414


