xflr5 v6.47

 Calculated polar for: AG18

 1 1 Reynolds number fixed          Mach number fixed         

 xtrf =   1.000 (top)        1.000 (bottom)
 Mach =   0.000     Re =     0.040 e 6     Ncrit =   9.000

  alpha     CL        CD       CDp       Cm    Top Xtr Bot Xtr   Cpmin    Chinge    XCp    
 ------- -------- --------- --------- -------- ------- ------- -------- --------- ---------
  -7.000  -0.5068   0.09701   0.08992   0.0200  1.0000  0.3071  -1.4843   0.0000   0.2882
  -6.900  -0.5084   0.09640   0.08934   0.0197  1.0000  0.3146  -1.4916   0.0000   0.2875
  -6.800  -0.5033   0.09451   0.08748   0.0200  1.0000  0.3200  -1.4854   0.0000   0.2885
  -6.700  -0.5030   0.09364   0.08664   0.0200  1.0000  0.3282  -1.4876   0.0000   0.2884
  -6.600  -0.4982   0.09182   0.08485   0.0203  1.0000  0.3341  -1.4817   0.0000   0.2894
  -6.500  -0.4996   0.09124   0.08431   0.0197  1.0000  0.3430  -1.4890   0.0000   0.2882
  -6.400  -0.4910   0.08896   0.08203   0.0208  1.0000  0.3497  -1.4725   0.0000   0.2911
  -6.300  -0.4974   0.08903   0.08218   0.0190  1.0000  0.3584  -1.4945   0.0000   0.2870
  -6.200  -0.4849   0.08634   0.07946   0.0212  1.0000  0.3675  -1.4655   0.0000   0.2924
  -6.100  -0.4829   0.08501   0.07817   0.0212  1.0000  0.3758  -1.4650   0.0000   0.2926
  -6.000  -0.4864   0.08470   0.07792   0.0201  1.0000  0.3864  -1.4775   0.0000   0.2902
  -5.900  -0.4760   0.08239   0.07559   0.0220  1.0000  0.3967  -1.4538   0.0000   0.2949
  -5.800  -0.4708   0.08073   0.07395   0.0226  1.0000  0.4061  -1.4448   0.0000   0.2969
  -5.700  -0.4690   0.07953   0.07279   0.0229  1.0000  0.4174  -1.4429   0.0000   0.2976
  -5.500  -0.4655   0.07734   0.07066   0.0237  1.0000  0.4428  -1.4374   0.0000   0.2997
  -5.400  -0.4623   0.07608   0.06943   0.0245  1.0000  0.4563  -1.4307   0.0000   0.3018
  -5.300  -0.4567   0.07443   0.06780   0.0258  1.0000  0.4708  -1.4179   0.0000   0.3054
  -5.200  -0.4478   0.07246   0.06583   0.0278  1.0000  0.4880  -1.3974   0.0000   0.3109
  -5.100  -0.4455   0.07142   0.06481   0.0294  1.0000  0.5093  -1.3889   0.0000   0.3148
  -5.000  -0.4362   0.06943   0.06278   0.0316  1.0000  0.5322  -1.3685   0.0000   0.3214
  -4.900  -0.4299   0.06784   0.06121   0.0339  1.0000  0.5587  -1.3516   0.0000   0.3276
  -4.600  -0.3560   0.05407   0.04670  -0.0316  1.0000  0.2209  -1.8103   0.0000   0.1603
  -4.500  -0.3361   0.05024   0.04261  -0.0365  1.0000  0.1864  -1.8869   0.0000   0.1406
  -4.400  -0.3192   0.04721   0.03932  -0.0402  1.0000  0.1712  -1.9419   0.0000   0.1230
  -4.300  -0.3026   0.04454   0.03631  -0.0434  1.0000  0.1614  -1.9909   0.0000   0.1055
  -4.200  -0.2904   0.04263   0.03427  -0.0446  1.0000  0.1587  -1.9951   0.0000   0.0953
  -4.100  -0.2715   0.03998   0.03101  -0.0479  1.0000  0.1506  -2.0655   0.0000   0.0724
  -4.000  -0.2599   0.03835   0.02926  -0.0484  1.0000  0.1497  -2.0567   0.0000   0.0624
  -3.900  -0.2479   0.03673   0.02744  -0.0490  1.0000  0.1484  -2.0520   0.0000   0.0512
  -3.800  -0.2354   0.03513   0.02564  -0.0495  1.0000  0.1469  -2.0483   0.0000   0.0381
  -3.700  -0.2225   0.03358   0.02386  -0.0501  1.0000  0.1460  -2.0458   0.0000   0.0232
  -3.600  -0.2095   0.03213   0.02216  -0.0506  1.0000  0.1460  -2.0409   0.0000   0.0069
  -3.500  -0.1965   0.03081   0.02056  -0.0509  1.0000  0.1475  -2.0320   0.0000  -0.0109
  -3.400  -0.1834   0.02963   0.01905  -0.0513  1.0000  0.1519  -2.0200   0.0000  -0.0315
  -3.300  -0.1735   0.02875   0.01824  -0.0511  1.0000  0.1597  -1.9910   0.0000  -0.0462
  -3.200  -0.1603   0.02767   0.01682  -0.0513  1.0000  0.1654  -2.0029   0.0000  -0.0719
  -3.100  -0.1496   0.02667   0.01586  -0.0510  1.0000  0.1713  -1.9886   0.0000  -0.0932
  -3.000  -0.1367   0.02569   0.01456  -0.0510  1.0000  0.1778  -1.9978   0.0000  -0.1251
  -2.900  -0.1260   0.02487   0.01373  -0.0507  1.0000  0.1906  -1.9790   0.0000  -0.1548
  -2.800  -0.1154   0.02409   0.01297  -0.0504  1.0000  0.2076  -1.9579   0.0000  -0.1896
  -2.700  -0.1043   0.02325   0.01214  -0.0500  1.0000  0.2245  -1.9414   0.0000  -0.2326
  -2.600  -0.0922   0.02241   0.01126  -0.0498  1.0000  0.2490  -1.9256   0.0000  -0.2933
  -2.500  -0.0814   0.02166   0.01066  -0.0494  1.0000  0.2874  -1.8966   0.0000  -0.3611
  -2.400  -0.0705   0.02074   0.00998  -0.0489  1.0000  0.3351  -1.8717   0.0000  -0.4476
  -2.300  -0.0612   0.01979   0.00945  -0.0481  1.0000  0.4093  -1.8411   0.0000  -0.5401
  -2.200  -0.0542   0.01862   0.00893  -0.0465  1.0000  0.5142  -1.8116   0.0000  -0.6115
  -2.100  -0.0525   0.01733   0.00842  -0.0433  1.0000  0.6416  -1.7883   0.0000  -0.5803
  -2.000  -0.0431   0.01556   0.00740  -0.0407  1.0000  1.0000  -1.7365   0.0000  -0.6985
  -1.900  -0.0278   0.01554   0.00683  -0.0419  1.0000  1.0000  -1.6518   0.0000  -1.2627
  -1.800  -0.0157   0.01553   0.00649  -0.0422  1.0000  1.0000  -1.5674   0.0000  -2.4433
  -1.700  -0.0044   0.01553   0.00621  -0.0423  1.0000  1.0000  -1.4828   0.0000  -9.4332
  -1.600   0.0066   0.01553   0.00598  -0.0424  1.0000  1.0000  -1.3983   0.0000   6.6938
  -1.500   0.0174   0.01553   0.00578  -0.0424  1.0000  1.0000  -1.3142   0.0000   2.6982
  -1.400   0.0280   0.01554   0.00561  -0.0424  1.0000  1.0000  -1.2308   0.0000   1.7683
  -1.300   0.0385   0.01555   0.00545  -0.0423  1.0000  1.0000  -1.1481   0.0000   1.3526
  -1.200   0.0489   0.01556   0.00531  -0.0423  1.0000  1.0000  -1.0662   0.0000   1.1165
  -1.100   0.0592   0.01558   0.00519  -0.0422  1.0000  1.0000  -0.9848   0.0000   0.9640
  -1.000   0.0695   0.01560   0.00508  -0.0421  1.0000  1.0000  -0.9029   0.0000   0.8572
  -0.900   0.0797   0.01563   0.00495  -0.0420  1.0000  1.0000  -0.8305   0.0000   0.7781
  -0.800   0.0899   0.01566   0.00487  -0.0419  1.0000  1.0000  -0.7682   0.0000   0.7173
  -0.700   0.1000   0.01569   0.00480  -0.0419  1.0000  1.0000  -0.7068   0.0000   0.6690
  -0.600   0.1100   0.01573   0.00474  -0.0418  1.0000  1.0000  -0.6464   0.0000   0.6297
  -0.500   0.1200   0.01577   0.00470  -0.0417  1.0000  1.0000  -0.5870   0.0000   0.5972
  -0.400   0.1300   0.01582   0.00467  -0.0416  1.0000  1.0000  -0.5287   0.0000   0.5697
  -0.300   0.1399   0.01587   0.00465  -0.0415  1.0000  1.0000  -0.4714   0.0000   0.5463
  -0.200   0.1498   0.01593   0.00464  -0.0414  1.0000  1.0000  -0.4237   0.0000   0.5260
  -0.100   0.1596   0.01599   0.00464  -0.0413  1.0000  1.0000  -0.3828   0.0000   0.5083
   0.000   0.1693   0.01605   0.00465  -0.0412  1.0000  1.0000  -0.3848   0.0000   0.4928
   0.100   0.1791   0.01612   0.00464  -0.0411  1.0000  1.0000  -0.3960   0.0000   0.4790
   0.200   0.1887   0.01620   0.00468  -0.0410  1.0000  1.0000  -0.4071   0.0000   0.4667
   0.300   0.1983   0.01628   0.00472  -0.0410  1.0000  1.0000  -0.4188   0.0000   0.4557
   0.400   0.2079   0.01637   0.00478  -0.0409  1.0000  1.0000  -0.4307   0.0000   0.4458
   0.500   0.2174   0.01647   0.00484  -0.0408  1.0000  1.0000  -0.4427   0.0000   0.4369
   0.600   0.2269   0.01657   0.00492  -0.0408  1.0000  1.0000  -0.4546   0.0000   0.4287
   0.700   0.2363   0.01668   0.00501  -0.0407  1.0000  1.0000  -0.4674   0.0000   0.4213
   0.800   0.2458   0.01680   0.00512  -0.0407  1.0000  1.0000  -0.4803   0.0000   0.4146
   0.900   0.2552   0.01693   0.00524  -0.0407  1.0000  1.0000  -0.4933   0.0000   0.4084
   1.000   0.2645   0.01707   0.00537  -0.0407  1.0000  1.0000  -0.5062   0.0000   0.4028
   1.100   0.2737   0.01722   0.00551  -0.0407  1.0000  1.0000  -0.5200   0.0000   0.3976
   1.200   0.2829   0.01738   0.00568  -0.0408  1.0000  1.0000  -0.5340   0.0000   0.3929
   1.300   0.2920   0.01756   0.00586  -0.0408  1.0000  1.0000  -0.5479   0.0000   0.3885
   1.400   0.3010   0.01774   0.00605  -0.0409  1.0000  1.0000  -0.5616   0.0000   0.3845
   1.500   0.3099   0.01794   0.00626  -0.0410  1.0000  1.0000  -0.5759   0.0000   0.3809
   1.600   0.3186   0.01816   0.00649  -0.0411  1.0000  1.0000  -0.5909   0.0000   0.3776
   1.700   0.3273   0.01839   0.00674  -0.0413  1.0000  1.0000  -0.6058   0.0000   0.3746
   1.800   0.3358   0.01864   0.00701  -0.0415  1.0000  1.0000  -0.6205   0.0000   0.3718
   1.900   0.3442   0.01892   0.00730  -0.0417  1.0000  1.0000  -0.6349   0.0000   0.3694
   2.000   0.3524   0.01921   0.00763  -0.0419  1.0000  1.0000  -0.6506   0.0000   0.3672
   2.100   0.3605   0.01953   0.00798  -0.0422  1.0000  1.0000  -0.6663   0.0000   0.3653
   2.200   0.3684   0.01988   0.00836  -0.0426  1.0000  1.0000  -0.6817   0.0000   0.3636
   2.300   0.3761   0.02026   0.00877  -0.0429  1.0000  1.0000  -0.6967   0.0000   0.3622
   2.400   0.3837   0.02067   0.00923  -0.0434  1.0000  1.0000  -0.7113   0.0000   0.3611
   2.500   0.3909   0.02112   0.00972  -0.0439  1.0000  1.0000  -0.7253   0.0000   0.3602
   2.600   0.3980   0.02162   0.01026  -0.0445  1.0000  1.0000  -0.7403   0.0000   0.3596
   2.700   0.4065   0.02216   0.01090  -0.0455  0.9987  1.0000  -0.7573   0.0000   0.3596
   2.800   0.4547   0.02282   0.01174  -0.0534  0.9740  1.0000  -0.8244   0.0000   0.3653
   2.900   0.4993   0.02325   0.01238  -0.0601  0.9482  1.0000  -0.8915   0.0000   0.3682
   3.000   0.5410   0.02346   0.01282  -0.0657  0.9218  1.0000  -0.9641   0.0000   0.3691
   3.100   0.5818   0.02345   0.01304  -0.0702  0.8954  1.0000  -1.0379   0.0000   0.3684
   3.200   0.6130   0.02331   0.01317  -0.0725  0.8705  1.0000  -1.1059   0.0000   0.3658
   3.300   0.6336   0.02324   0.01323  -0.0728  0.8460  1.0000  -1.1605   0.0000   0.3624
   3.400   0.6497   0.02320   0.01328  -0.0722  0.8220  1.0000  -1.2076   0.0000   0.3587
   3.500   0.6643   0.02311   0.01326  -0.0711  0.7995  1.0000  -1.2532   0.0000   0.3545
   3.600   0.6756   0.02309   0.01329  -0.0696  0.7768  1.0000  -1.2972   0.0000   0.3504
   3.700   0.6852   0.02315   0.01336  -0.0679  0.7539  1.0000  -1.3404   0.0000   0.3464
   3.800   0.6949   0.02313   0.01333  -0.0659  0.7329  1.0000  -1.3857   0.0000   0.3422
   3.900   0.7028   0.02328   0.01349  -0.0642  0.7094  1.0000  -1.4249   0.0000   0.3386
   4.000   0.7111   0.02339   0.01358  -0.0623  0.6873  1.0000  -1.4660   0.0000   0.3349
   4.100   0.7192   0.02353   0.01368  -0.0605  0.6652  1.0000  -1.5139   0.0000   0.3313
   4.200   0.7271   0.02375   0.01395  -0.0589  0.6422  1.0000  -1.5612   0.0000   0.3281
   4.300   0.7355   0.02389   0.01401  -0.0571  0.6212  1.0000  -1.6120   0.0000   0.3247
   4.400   0.7434   0.02418   0.01429  -0.0558  0.5979  1.0000  -1.6595   0.0000   0.3220
   4.500   0.7519   0.02446   0.01451  -0.0544  0.5757  1.0000  -1.7179   0.0000   0.3192
   4.600   0.7604   0.02475   0.01474  -0.0530  0.5541  1.0000  -1.7772   0.0000   0.3166
   4.700   0.7689   0.02513   0.01508  -0.0519  0.5317  1.0000  -1.8376   0.0000   0.3143
   4.800   0.7776   0.02546   0.01530  -0.0506  0.5112  1.0000  -1.9094   0.0000   0.3117
   4.900   0.7862   0.02594   0.01577  -0.0497  0.4893  1.0000  -1.9827   0.0000   0.3098
   5.000   0.7950   0.02633   0.01605  -0.0485  0.4696  1.0000  -2.0681   0.0000   0.3075
   5.100   0.8037   0.02687   0.01660  -0.0477  0.4483  1.0000  -2.1464   0.0000   0.3058
   5.200   0.8127   0.02737   0.01701  -0.0467  0.4293  1.0000  -2.2307   0.0000   0.3039
   5.300   0.8215   0.02795   0.01756  -0.0459  0.4100  1.0000  -2.3117   0.0000   0.3022
   5.400   0.8304   0.02856   0.01816  -0.0452  0.3914  1.0000  -2.4062   0.0000   0.3007
   5.500   0.8395   0.02916   0.01877  -0.0444  0.3742  1.0000  -2.5016   0.0000   0.2990
   5.600   0.8485   0.02979   0.01934  -0.0436  0.3570  1.0000  -2.5979   0.0000   0.2975
   5.700   0.8573   0.03054   0.02015  -0.0431  0.3401  1.0000  -2.6872   0.0000   0.2962
   5.800   0.8666   0.03136   0.02100  -0.0425  0.3252  1.0000  -2.7773   0.0000   0.2950
   5.900   0.8755   0.03213   0.02179  -0.0419  0.3100  1.0000  -2.8689   0.0000   0.2937
   6.000   0.8842   0.03285   0.02250  -0.0412  0.2948  1.0000  -2.9625   0.0000   0.2924
   6.100   0.8931   0.03371   0.02340  -0.0407  0.2813  1.0000  -3.0505   0.0000   0.2912
   6.200   0.9024   0.03479   0.02457  -0.0403  0.2702  1.0000  -3.1302   0.0000   0.2902
   6.300   0.9114   0.03573   0.02553  -0.0397  0.2584  1.0000  -3.2159   0.0000   0.2891
   6.400   0.9199   0.03655   0.02634  -0.0391  0.2457  1.0000  -3.3056   0.0000   0.2879
   6.500   0.9286   0.03734   0.02708  -0.0385  0.2336  1.0000  -3.3993   0.0000   0.2868
   6.600   0.9368   0.03875   0.02879  -0.0382  0.2248  1.0000  -3.4484   0.0000   0.2860
   6.700   0.9455   0.04019   0.03035  -0.0378  0.2175  1.0000  -3.5077   0.0000   0.2852
   6.800   0.9544   0.04118   0.03132  -0.0373  0.2082  1.0000  -3.5904   0.0000   0.2841
   6.900   0.9607   0.04268   0.03313  -0.0370  0.1993  1.0000  -3.6246   0.0000   0.2835
   7.000   0.9684   0.04369   0.03415  -0.0364  0.1899  1.0000  -3.6997   0.0000   0.2825
   7.100   0.9755   0.04526   0.03593  -0.0361  0.1837  1.0000  -3.7368   0.0000   0.2819
   7.200   0.9842   0.04679   0.03752  -0.0356  0.1788  1.0000  -3.7978   0.0000   0.2810
   7.300   0.9884   0.04916   0.04033  -0.0357  0.1761  1.0000  -3.7789   0.0000   0.2808
   7.400   0.9931   0.05122   0.04267  -0.0356  0.1724  1.0000  -3.7820   0.0000   0.2805
   7.500   1.0014   0.05220   0.04353  -0.0349  0.1648  1.0000  -3.8646   0.0000   0.2794
   7.600   1.0030   0.05457   0.04629  -0.0351  0.1618  1.0000  -3.8363   0.0000   0.2795
   7.700   1.0142   0.05495   0.04637  -0.0340  0.1526  1.0000  -3.9626   0.0000   0.2780
   7.800   1.0157   0.05756   0.04932  -0.0342  0.1519  1.0000  -3.9256   0.0000   0.2781
   7.900   1.0169   0.06021   0.05224  -0.0344  0.1514  1.0000  -3.8908   0.0000   0.2782
   8.000   1.0176   0.06289   0.05515  -0.0348  0.1512  1.0000  -3.8565   0.0000   0.2785
   8.100   1.0179   0.06558   0.05804  -0.0352  0.1513  1.0000  -3.8225   0.0000   0.2789
   8.200   1.0179   0.06829   0.06091  -0.0356  0.1515  1.0000  -3.7896   0.0000   0.2793
   8.300   1.0176   0.07099   0.06374  -0.0361  0.1518  1.0000  -3.7580   0.0000   0.2798
   8.400   1.0171   0.07368   0.06654  -0.0367  0.1521  1.0000  -3.7270   0.0000   0.2803
   8.500   1.0163   0.07636   0.06931  -0.0373  0.1524  1.0000  -3.6968   0.0000   0.2809
   8.600   1.0154   0.07903   0.07206  -0.0379  0.1526  1.0000  -3.6672   0.0000   0.2814
   8.800   0.9843   0.08771   0.08099  -0.0449  0.1644  1.0000  -3.3798   0.0000   0.2898
   8.900   0.9856   0.09031   0.08360  -0.0454  0.1655  1.0000  -3.3650   0.0000   0.2902
   9.100   0.9552   0.09906   0.09222  -0.0544  0.1779  1.0000  -3.0943   0.0000   0.3011
   9.200   0.9609   0.10153   0.09473  -0.0541  0.1802  1.0000  -3.0999   0.0000   0.3004
   9.300   0.8652   0.12364   0.11627  -0.0938  0.3981  1.0000  -2.0596   0.0000   0.3528
   9.400   0.8582   0.12457   0.11716  -0.0939  0.3931  1.0000  -2.0362   0.0000   0.3538
   9.500   0.8629   0.12663   0.11926  -0.0939  0.3891  1.0000  -2.0544   0.0000   0.3532
   9.600   0.8775   0.13014   0.12284  -0.0938  0.3858  1.0000  -2.1047   0.0000   0.3512
   9.700   0.8631   0.13029   0.12292  -0.0943  0.3828  1.0000  -2.0539   0.0000   0.3534
   9.800   0.8615   0.13164   0.12426  -0.0944  0.3774  1.0000  -2.0500   0.0000   0.3536
   9.900   0.8762   0.13494   0.12765  -0.0941  0.3727  1.0000  -2.1011   0.0000   0.3514
  10.000   0.8696   0.13604   0.12870  -0.0945  0.3703  1.0000  -2.0756   0.0000   0.3527
  10.100   0.8633   0.13683   0.12946  -0.0947  0.3650  1.0000  -2.0548   0.0000   0.3536
  10.200   0.8784   0.14018   0.13288  -0.0941  0.3576  1.0000  -2.1085   0.0000   0.3510
  10.300   0.8681   0.14059   0.13324  -0.0947  0.3547  1.0000  -2.0711   0.0000   0.3528
  10.400   0.8802   0.14334   0.13604  -0.0937  0.3436  1.0000  -2.1184   0.0000   0.3502
  10.500   0.8711   0.14385   0.13651  -0.0944  0.3408  1.0000  -2.0840   0.0000   0.3519
  10.600   0.8830   0.14661   0.13932  -0.0934  0.3298  1.0000  -2.1299   0.0000   0.3493
  10.700   0.8740   0.14707   0.13973  -0.0941  0.3268  1.0000  -2.0953   0.0000   0.3511
  10.800   0.8792   0.14895   0.14165  -0.0938  0.3194  1.0000  -2.1132   0.0000   0.3500
  10.900   0.8881   0.15206   0.14478  -0.0936  0.3162  1.0000  -2.1358   0.0000   0.3487
  11.000   0.8779   0.15222   0.14490  -0.0945  0.3133  1.0000  -2.0974   0.0000   0.3508
  11.100   0.8776   0.15357   0.14625  -0.0947  0.3084  1.0000  -2.0924   0.0000   0.3510
  11.200   0.8982   0.15825   0.15100  -0.0936  0.3030  1.0000  -2.1522   0.0000   0.3474
  11.300   0.8872   0.15823   0.15093  -0.0947  0.3016  1.0000  -2.1102   0.0000   0.3498
  11.400   0.8807   0.15872   0.15139  -0.0954  0.2978  1.0000  -2.0835   0.0000   0.3513
  11.500   0.8848   0.16060   0.15329  -0.0954  0.2929  1.0000  -2.0912   0.0000   0.3507
  11.600   0.8964   0.16415   0.15687  -0.0950  0.2887  1.0000  -2.1192   0.0000   0.3487
  11.700   0.8879   0.16427   0.15695  -0.0960  0.2865  1.0000  -2.0845   0.0000   0.3507
  11.800   0.8863   0.16529   0.15796  -0.0964  0.2814  1.0000  -2.0734   0.0000   0.3513
  11.900   0.8992   0.16885   0.16156  -0.0955  0.2747  1.0000  -2.1081   0.0000   0.3488
  12.000   0.8920   0.16906   0.16174  -0.0966  0.2724  1.0000  -2.0763   0.0000   0.3507


